>120.sdf
 OpenBabel10052218373D

 58 60  0  0  0  0  0  0  0  0999 V2000
    8.7826    0.4219   -1.2052 C   0  0  0  0  0  0  0  0  0  0  0  0
    8.2492    1.2378   -0.2282 O   0  0  0  0  0  0  0  0  0  0  0  0
    6.9845    1.1510    0.2678 C   0  0  0  0  0  0  0  0  0  0  0  0
    6.0747    0.1675   -0.1778 C   0  0  0  0  0  0  0  0  0  0  0  0
    4.7686    0.1039    0.3377 C   0  0  0  0  0  0  0  0  0  0  0  0
    3.8495   -0.9449   -0.1996 C   0  0  0  0  0  0  0  0  0  0  0  0
    2.5465   -1.0546    0.1310 C   0  0  0  0  0  0  0  0  0  0  0  0
    1.6612   -2.0793   -0.4973 C   0  0  0  0  0  0  0  0  0  0  0  0
    2.1357   -2.8435   -1.3277 O   0  0  0  0  0  0  0  0  0  0  0  0
    0.1806   -2.1131   -0.2179 C   0  0  0  0  0  0  0  0  0  0  0  0
   -0.6241   -2.8090   -1.0781 C   0  0  0  0  0  0  0  0  0  0  0  0
   -2.1009   -3.0566   -0.9965 C   0  0  0  0  0  0  0  0  0  0  0  0
   -2.8430   -3.0039    0.2047 C   0  0  0  0  0  0  0  0  0  0  0  0
   -4.2174   -3.2656    0.2023 C   0  0  0  0  0  0  0  0  0  0  0  0
   -4.9171   -3.2092    1.3627 F   0  0  0  0  0  0  0  0  0  0  0  0
   -4.8679   -3.5944   -0.9885 C   0  0  0  0  0  0  0  0  0  0  0  0
   -6.1998   -3.8492   -0.9887 F   0  0  0  0  0  0  0  0  0  0  0  0
   -4.1434   -3.6745   -2.1777 C   0  0  0  0  0  0  0  0  0  0  0  0
   -2.7702   -3.4156   -2.1817 C   0  0  0  0  0  0  0  0  0  0  0  0
   -0.3487   -1.3189    0.9316 C   0  0  0  0  0  0  0  0  0  0  0  0
    0.2540   -1.3232    1.9959 O   0  0  0  0  0  0  0  0  0  0  0  0
   -1.4976   -0.3947    0.7406 C   0  0  0  0  0  0  0  0  0  0  0  0
   -2.0158    0.3145    1.7632 C   0  0  0  0  0  0  0  0  0  0  0  0
   -3.1287    1.2989    1.6243 C   0  0  0  0  0  0  0  0  0  0  0  0
   -3.6341    1.7123    0.3726 C   0  0  0  0  0  0  0  0  0  0  0  0
   -4.6692    2.6699    0.2945 C   0  0  0  0  0  0  0  0  0  0  0  0
   -5.1592    3.1021   -0.9002 O   0  0  0  0  0  0  0  0  0  0  0  0
   -4.6960    2.7168   -2.1423 C   0  0  0  0  0  0  0  0  0  0  0  0
   -5.2047    3.2029    1.4825 C   0  0  0  0  0  0  0  0  0  0  0  0
   -6.1960    4.1194    1.4499 O   0  0  0  0  0  0  0  0  0  0  0  0
   -4.7049    2.7908    2.7200 C   0  0  0  0  0  0  0  0  0  0  0  0
   -3.6741    1.8538    2.7916 C   0  0  0  0  0  0  0  0  0  0  0  0
    4.3797    1.0389    1.3198 C   0  0  0  0  0  0  0  0  0  0  0  0
    5.2781    2.0088    1.7665 C   0  0  0  0  0  0  0  0  0  0  0  0
    6.5728    2.0733    1.2479 C   0  0  0  0  0  0  0  0  0  0  0  0
    7.4109    3.0312    1.6992 O   0  0  0  0  0  0  0  0  0  0  0  0
    8.1997    0.5172   -2.1464 H   0  0  0  0  0  0  0  0  0  0  0  0
    8.7909   -0.6348   -0.8629 H   0  0  0  0  0  0  0  0  0  0  0  0
    9.8273    0.7352   -1.4065 H   0  0  0  0  0  0  0  0  0  0  0  0
    6.3740   -0.5460   -0.9342 H   0  0  0  0  0  0  0  0  0  0  0  0
    4.2597   -1.6392   -0.9283 H   0  0  0  0  0  0  0  0  0  0  0  0
    2.1114   -0.3574    0.8251 H   0  0  0  0  0  0  0  0  0  0  0  0
   -0.1470   -3.2571   -1.9457 H   0  0  0  0  0  0  0  0  0  0  0  0
   -2.3738   -2.7892    1.1499 H   0  0  0  0  0  0  0  0  0  0  0  0
   -4.6448   -3.9392   -3.0998 H   0  0  0  0  0  0  0  0  0  0  0  0
   -2.2268   -3.4844   -3.1165 H   0  0  0  0  0  0  0  0  0  0  0  0
   -1.8951   -0.3004   -0.2597 H   0  0  0  0  0  0  0  0  0  0  0  0
   -1.6019    0.1681    2.7577 H   0  0  0  0  0  0  0  0  0  0  0  0
   -3.2221    1.3145   -0.5380 H   0  0  0  0  0  0  0  0  0  0  0  0
   -4.8246    1.6224   -2.2815 H   0  0  0  0  0  0  0  0  0  0  0  0
   -3.6262    2.9960   -2.2566 H   0  0  0  0  0  0  0  0  0  0  0  0
   -5.2798    3.2426   -2.9252 H   0  0  0  0  0  0  0  0  0  0  0  0
   -6.5756    4.4439    0.6213 H   0  0  0  0  0  0  0  0  0  0  0  0
   -5.1150    3.2047    3.6327 H   0  0  0  0  0  0  0  0  0  0  0  0
   -3.3007    1.5566    3.7643 H   0  0  0  0  0  0  0  0  0  0  0  0
    3.3918    1.0360    1.7509 H   0  0  0  0  0  0  0  0  0  0  0  0
    4.9636    2.7204    2.5200 H   0  0  0  0  0  0  0  0  0  0  0  0
    8.3161    3.1257    1.3712 H   0  0  0  0  0  0  0  0  0  0  0  0
  1 37  1  0  0  0  0
  1 38  1  0  0  0  0
  1 39  1  0  0  0  0
  2  1  1  0  0  0  0
  3  2  1  0  0  0  0
  4  3  2  0  0  0  0
  4 40  1  0  0  0  0
  5  4  1  0  0  0  0
  6  5  1  0  0  0  0
  6 41  1  0  0  0  0
  7  6  2  0  0  0  0
  7 42  1  0  0  0  0
  8  7  1  0  0  0  0
  9  8  2  0  0  0  0
 10  8  1  0  0  0  0
 11 10  2  0  0  0  0
 11 43  1  0  0  0  0
 12 11  1  0  0  0  0
 13 12  2  0  0  0  0
 13 44  1  0  0  0  0
 14 13  1  0  0  0  0
 15 14  1  0  0  0  0
 16 14  2  0  0  0  0
 17 16  1  0  0  0  0
 18 16  1  0  0  0  0
 18 45  1  0  0  0  0
 19 18  2  0  0  0  0
 19 12  1  0  0  0  0
 19 46  1  0  0  0  0
 20 10  1  0  0  0  0
 21 20  2  0  0  0  0
 22 20  1  0  0  0  0
 22 47  1  0  0  0  0
 23 22  2  0  0  0  0
 23 48  1  0  0  0  0
 24 23  1  0  0  0  0
 25 24  2  0  0  0  0
 25 49  1  0  0  0  0
 26 25  1  0  0  0  0
 27 26  1  0  0  0  0
 28 27  1  0  0  0  0
 28 50  1  0  0  0  0
 28 51  1  0  0  0  0
 28 52  1  0  0  0  0
 29 26  2  0  0  0  0
 30 29  1  0  0  0  0
 30 53  1  0  0  0  0
 31 29  1  0  0  0  0
 31 54  1  0  0  0  0
 32 31  2  0  0  0  0
 32 24  1  0  0  0  0
 32 55  1  0  0  0  0
 33  5  2  0  0  0  0
 33 56  1  0  0  0  0
 34 33  1  0  0  0  0
 34 57  1  0  0  0  0
 35 34  2  0  0  0  0
 35  3  1  0  0  0  0
 36 35  1  0  0  0  0
 36 58  1  0  0  0  0
M  END
>  <MOL Chiral Flag>
0

>  <energy>
109.58867879447547

$$$$
