>122.sdf
 OpenBabel10052218383D

 37 39  0  0  0  0  0  0  0  0999 V2000
   -5.4852    0.2087   -1.5263 C   0  0  0  0  0  0  0  0  0  0  0  0
   -4.5938    0.5361   -0.4220 N   0  0  0  0  0  0  0  0  0  0  0  0
   -5.1330    1.2473    0.7305 C   0  0  0  0  0  0  0  0  0  0  0  0
   -3.1916    0.1882   -0.4794 C   0  0  0  0  0  0  0  0  0  0  0  0
   -2.6372   -0.4306   -1.6261 C   0  0  0  0  0  0  0  0  0  0  0  0
   -1.2715   -0.7296   -1.6912 C   0  0  0  0  0  0  0  0  0  0  0  0
   -0.4294   -0.4172   -0.6172 C   0  0  0  0  0  0  0  0  0  0  0  0
    0.9488   -0.6584   -0.6806 C   0  0  0  0  0  0  0  0  0  0  0  0
    1.7846   -0.2761    0.3860 C   0  0  0  0  0  0  0  0  0  0  0  0
    1.1854    0.2894    1.5455 C   0  0  0  0  0  0  0  0  0  0  0  0
    1.9394    0.5989    2.7083 N   0  0  0  0  0  0  0  0  0  0  0  0
   -0.1578    0.4941    1.5762 N   0  0  0  0  0  0  0  0  0  0  0  0
   -0.9671    0.1812    0.5334 C   0  0  0  0  0  0  0  0  0  0  0  0
   -2.3303    0.4762    0.6041 C   0  0  0  0  0  0  0  0  0  0  0  0
    3.2610   -0.4146    0.2340 C   0  0  0  0  0  0  0  0  0  0  0  0
    3.8331   -1.5738   -0.3223 C   0  0  0  0  0  0  0  0  0  0  0  0
    5.2227   -1.6674   -0.4815 C   0  0  0  0  0  0  0  0  0  0  0  0
    5.9355   -3.1278   -1.1409 Cl  0  0  0  0  0  0  0  0  0  0  0  0
    6.0452   -0.5957   -0.1182 C   0  0  0  0  0  0  0  0  0  0  0  0
    5.4840    0.5682    0.4096 C   0  0  0  0  0  0  0  0  0  0  0  0
    6.5086    1.9281    0.8326 Cl  0  0  0  0  0  0  0  0  0  0  0  0
    4.1030    0.6570    0.5903 C   0  0  0  0  0  0  0  0  0  0  0  0
   -6.5269    0.5451   -1.3401 H   0  0  0  0  0  0  0  0  0  0  0  0
   -5.1381    0.7088   -2.4550 H   0  0  0  0  0  0  0  0  0  0  0  0
   -5.5109   -0.8912   -1.6756 H   0  0  0  0  0  0  0  0  0  0  0  0
   -5.0053    0.6375    1.6493 H   0  0  0  0  0  0  0  0  0  0  0  0
   -4.6097    2.2207    0.8486 H   0  0  0  0  0  0  0  0  0  0  0  0
   -6.2158    1.4670    0.6235 H   0  0  0  0  0  0  0  0  0  0  0  0
   -3.2492   -0.6719   -2.4832 H   0  0  0  0  0  0  0  0  0  0  0  0
   -0.8705   -1.1867   -2.5883 H   0  0  0  0  0  0  0  0  0  0  0  0
    1.3770   -1.0868   -1.5799 H   0  0  0  0  0  0  0  0  0  0  0  0
    2.9294    0.3394    2.8022 H   0  0  0  0  0  0  0  0  0  0  0  0
    1.4619    0.9862    3.5346 H   0  0  0  0  0  0  0  0  0  0  0  0
   -2.7025    0.9460    1.5035 H   0  0  0  0  0  0  0  0  0  0  0  0
    3.2066   -2.4087   -0.6107 H   0  0  0  0  0  0  0  0  0  0  0  0
    7.1173   -0.6634   -0.2528 H   0  0  0  0  0  0  0  0  0  0  0  0
    3.6820    1.5762    0.9794 H   0  0  0  0  0  0  0  0  0  0  0  0
  1 23  1  0  0  0  0
  1 24  1  0  0  0  0
  1 25  1  0  0  0  0
  2  1  1  0  0  0  0
  3  2  1  0  0  0  0
  3 26  1  0  0  0  0
  3 27  1  0  0  0  0
  3 28  1  0  0  0  0
  4  2  1  0  0  0  0
  5  4  2  0  0  0  0
  5 29  1  0  0  0  0
  6  5  1  0  0  0  0
  6 30  1  0  0  0  0
  7  6  2  0  0  0  0
  8  7  1  0  0  0  0
  8 31  1  0  0  0  0
  9  8  2  0  0  0  0
 10  9  1  0  0  0  0
 11 10  1  0  0  0  0
 11 32  1  0  0  0  0
 11 33  1  0  0  0  0
 12 10  2  0  0  0  0
 13 12  1  0  0  0  0
 13  7  1  0  0  0  0
 14 13  2  0  0  0  0
 14  4  1  0  0  0  0
 14 34  1  0  0  0  0
 15  9  1  0  0  0  0
 16 15  2  0  0  0  0
 16 35  1  0  0  0  0
 17 16  1  0  0  0  0
 18 17  1  0  0  0  0
 19 17  2  0  0  0  0
 19 36  1  0  0  0  0
 20 19  1  0  0  0  0
 21 20  1  0  0  0  0
 22 20  2  0  0  0  0
 22 15  1  0  0  0  0
 22 37  1  0  0  0  0
M  END
>  <MOL Chiral Flag>
0

>  <energy>
15.94599365574588

$$$$
