>123.sdf
 OpenBabel10052218393D

 58 61  0  0  0  0  0  0  0  0999 V2000
    4.3536   -1.9370    0.7563 C   0  0  0  0  0  0  0  0  0  0  0  0
    3.2423   -0.9338    1.1181 C   0  0  2  0  0  0  0  0  0  0  0  0
    1.9575   -1.4674    0.6202 N   0  0  0  0  0  0  0  0  0  0  0  0
    1.7812   -1.8389   -0.6380 N   0  0  0  0  0  0  0  0  0  0  0  0
    0.4841   -2.1557   -0.7847 C   0  0  0  0  0  0  0  0  0  0  0  0
   -0.2014   -1.9689    0.3705 N   0  0  0  0  0  0  0  0  0  0  0  0
    0.7637   -1.5737    1.2487 C   0  0  0  0  0  0  0  0  0  0  0  0
    0.5583   -1.2657    2.6425 S   0  0  0  0  0  0  0  0  0  0  0  0
   -1.6517   -2.0689    0.4725 C   0  0  0  0  0  0  0  0  0  0  0  0
   -2.3810   -2.7987   -0.4912 C   0  0  0  0  0  0  0  0  0  0  0  0
   -3.7768   -2.7904   -0.4906 C   0  0  0  0  0  0  0  0  0  0  0  0
   -4.4826   -2.0404    0.4512 C   0  0  0  0  0  0  0  0  0  0  0  0
   -5.8383   -1.9937    0.3566 O   0  0  0  0  0  0  0  0  0  0  0  0
   -6.6756   -1.0361    0.9103 C   0  0  0  0  0  0  0  0  0  0  0  0
   -6.7665    0.2630    0.0724 C   0  0  0  0  0  0  0  0  0  0  0  0
   -7.2028   -0.0477   -1.2047 F   0  0  0  0  0  0  0  0  0  0  0  0
   -7.7192    1.0709    0.6700 F   0  0  0  0  0  0  0  0  0  0  0  0
   -5.4677    1.0767   -0.0344 C   0  0  0  0  0  0  0  0  0  0  0  0
   -4.5123    0.4090   -0.7763 F   0  0  0  0  0  0  0  0  0  0  0  0
   -5.7302    2.2757   -0.6731 F   0  0  0  0  0  0  0  0  0  0  0  0
   -3.7690   -1.3380    1.4394 C   0  0  0  0  0  0  0  0  0  0  0  0
   -2.3746   -1.3538    1.4511 C   0  0  0  0  0  0  0  0  0  0  0  0
    3.4118    0.5668    0.6031 C   0  0  2  0  0  0  0  0  0  0  0  0
    4.6525    1.1261    0.9756 O   0  0  0  0  0  0  0  0  0  0  0  0
    2.3535    1.4199    1.3898 C   0  0  0  0  0  0  0  0  0  0  0  0
    2.3452    2.8424    1.0284 N   0  0  0  0  0  0  0  0  0  0  0  0
    3.3418    3.7381    1.1463 C   0  0  0  0  0  0  0  0  0  0  0  0
    2.9347    4.9552    0.7364 N   0  0  0  0  0  0  0  0  0  0  0  0
    1.6499    4.7545    0.3725 C   0  0  0  0  0  0  0  0  0  0  0  0
    1.2856    3.4722    0.5533 N   0  0  0  0  0  0  0  0  0  0  0  0
    3.2245    0.6634   -0.9376 C   0  0  0  0  0  0  0  0  0  0  0  0
    1.9903    1.0832   -1.5031 C   0  0  0  0  0  0  0  0  0  0  0  0
    1.8103    1.1363   -2.8847 C   0  0  0  0  0  0  0  0  0  0  0  0
    2.8459    0.7783   -3.7402 C   0  0  0  0  0  0  0  0  0  0  0  0
    2.6629    0.8294   -5.0826 F   0  0  0  0  0  0  0  0  0  0  0  0
    4.0679    0.3619   -3.2160 C   0  0  0  0  0  0  0  0  0  0  0  0
    4.2646    0.2977   -1.8311 C   0  0  0  0  0  0  0  0  0  0  0  0
    5.4737   -0.1127   -1.3791 F   0  0  0  0  0  0  0  0  0  0  0  0
    4.4408   -2.0690   -0.3401 H   0  0  0  0  0  0  0  0  0  0  0  0
    5.3368   -1.6454    1.1752 H   0  0  0  0  0  0  0  0  0  0  0  0
    4.1056   -2.9278    1.1930 H   0  0  0  0  0  0  0  0  0  0  0  0
    3.2387   -0.8927    2.2297 H   0  0  0  0  0  0  0  0  0  0  0  0
    0.0551   -2.4428   -1.7336 H   0  0  0  0  0  0  0  0  0  0  0  0
   -1.8765   -3.3626   -1.2619 H   0  0  0  0  0  0  0  0  0  0  0  0
   -4.3132   -3.3386   -1.2550 H   0  0  0  0  0  0  0  0  0  0  0  0
   -6.4302   -0.8340    1.9724 H   0  0  0  0  0  0  0  0  0  0  0  0
   -7.6978   -1.4696    0.9160 H   0  0  0  0  0  0  0  0  0  0  0  0
   -5.0703    1.3044    0.9770 H   0  0  0  0  0  0  0  0  0  0  0  0
   -4.2765   -0.7476    2.1864 H   0  0  0  0  0  0  0  0  0  0  0  0
   -1.8884   -0.7500    2.1937 H   0  0  0  0  0  0  0  0  0  0  0  0
    5.3800    0.4720    0.8623 H   0  0  0  0  0  0  0  0  0  0  0  0
    1.3325    1.0234    1.2383 H   0  0  0  0  0  0  0  0  0  0  0  0
    2.5608    1.3447    2.4803 H   0  0  0  0  0  0  0  0  0  0  0  0
    4.3307    3.5276    1.5278 H   0  0  0  0  0  0  0  0  0  0  0  0
    0.9942    5.5256   -0.0089 H   0  0  0  0  0  0  0  0  0  0  0  0
    1.1453    1.3494   -0.8929 H   0  0  0  0  0  0  0  0  0  0  0  0
    0.8569    1.4509   -3.2908 H   0  0  0  0  0  0  0  0  0  0  0  0
    4.8697    0.0829   -3.8870 H   0  0  0  0  0  0  0  0  0  0  0  0
  1 39  1  0  0  0  0
  1 40  1  0  0  0  0
  1 41  1  0  0  0  0
  2  1  1  0  0  0  0
  2 42  1  1  0  0  0
  3  2  1  0  0  0  0
  4  3  1  0  0  0  0
  5  4  2  0  0  0  0
  5 43  1  0  0  0  0
  6  5  1  0  0  0  0
  7  6  1  0  0  0  0
  7  3  1  0  0  0  0
  8  7  2  0  0  0  0
  9  6  1  0  0  0  0
 10  9  2  0  0  0  0
 10 44  1  0  0  0  0
 11 10  1  0  0  0  0
 11 45  1  0  0  0  0
 12 11  2  0  0  0  0
 13 12  1  0  0  0  0
 14 13  1  0  0  0  0
 14 46  1  0  0  0  0
 14 47  1  0  0  0  0
 15 14  1  0  0  0  0
 16 15  1  0  0  0  0
 17 15  1  0  0  0  0
 18 15  1  0  0  0  0
 18 48  1  0  0  0  0
 19 18  1  0  0  0  0
 20 18  1  0  0  0  0
 21 12  1  0  0  0  0
 21 49  1  0  0  0  0
 22 21  2  0  0  0  0
 22  9  1  0  0  0  0
 22 50  1  0  0  0  0
 23  2  1  0  0  0  0
 23 24  1  1  0  0  0
 24 51  1  0  0  0  0
 25 23  1  0  0  0  0
 25 52  1  0  0  0  0
 25 53  1  0  0  0  0
 26 25  1  0  0  0  0
 27 26  1  0  0  0  0
 27 54  1  0  0  0  0
 28 27  2  0  0  0  0
 29 28  1  0  0  0  0
 29 55  1  0  0  0  0
 30 29  2  0  0  0  0
 30 26  1  0  0  0  0
 31 23  1  0  0  0  0
 32 31  2  0  0  0  0
 32 56  1  0  0  0  0
 33 32  1  0  0  0  0
 33 57  1  0  0  0  0
 34 33  2  0  0  0  0
 35 34  1  0  0  0  0
 36 34  1  0  0  0  0
 36 58  1  0  0  0  0
 37 36  2  0  0  0  0
 37 31  1  0  0  0  0
 38 37  1  0  0  0  0
M  END
>  <MOL Chiral Flag>
0

>  <energy>
165.62700163706751

$$$$
