>126.sdf
 OpenBabel10052218403D

 40 43  0  0  0  0  0  0  0  0999 V2000
   -4.9446    4.7582   -0.4323 Cl  0  0  0  0  0  0  0  0  0  0  0  0
   -3.6540    3.5732   -0.3475 C   0  0  0  0  0  0  0  0  0  0  0  0
   -2.4207    3.9209    0.2070 C   0  0  0  0  0  0  0  0  0  0  0  0
   -1.3906    2.9784    0.2778 C   0  0  0  0  0  0  0  0  0  0  0  0
   -1.5775    1.6725   -0.2202 C   0  0  0  0  0  0  0  0  0  0  0  0
   -2.8370    1.3295   -0.7515 C   0  0  0  0  0  0  0  0  0  0  0  0
   -3.8627    2.2767   -0.8216 C   0  0  0  0  0  0  0  0  0  0  0  0
   -0.5073    0.6321   -0.1301 C   0  0  0  0  0  0  0  0  0  0  0  0
    0.8659    0.7843   -0.0687 N   0  3  0  0  0  0  0  0  0  0  0  0
    1.5212   -0.3780    0.1529 N   0  0  0  0  0  0  0  0  0  0  0  0
    0.7185   -1.4701    0.2511 C   0  0  0  0  0  0  0  0  0  0  0  0
    1.2468   -2.7866    0.4299 N   0  0  0  0  0  0  0  0  0  0  0  0
    0.5303   -4.0233    0.5899 C   0  0  0  0  0  0  0  0  0  0  0  0
    1.2687   -5.2230    0.5413 C   0  0  0  0  0  0  0  0  0  0  0  0
    0.6403   -6.4617    0.6915 C   0  0  0  0  0  0  0  0  0  0  0  0
   -0.7356   -6.5266    0.8999 C   0  0  0  0  0  0  0  0  0  0  0  0
   -1.4849   -5.3527    0.9631 C   0  0  0  0  0  0  0  0  0  0  0  0
   -0.8647   -4.1074    0.8122 C   0  0  0  0  0  0  0  0  0  0  0  0
   -0.8407   -0.9802    0.0444 S   0  0  0  0  0  0  0  0  0  0  0  0
    1.6408    1.9867   -0.2985 C   0  0  0  0  0  0  0  0  0  0  0  0
    2.9074    2.1229    0.3032 C   0  0  0  0  0  0  0  0  0  0  0  0
    3.6882    3.2587    0.0696 C   0  0  0  0  0  0  0  0  0  0  0  0
    3.2262    4.2638   -0.7812 C   0  0  0  0  0  0  0  0  0  0  0  0
    1.9869    4.1308   -1.4086 C   0  0  0  0  0  0  0  0  0  0  0  0
    1.1999    2.9986   -1.1777 C   0  0  0  0  0  0  0  0  0  0  0  0
   -2.2611    4.9201    0.5920 H   0  0  0  0  0  0  0  0  0  0  0  0
   -0.4609    3.2689    0.7433 H   0  0  0  0  0  0  0  0  0  0  0  0
   -3.0245    0.3309   -1.1248 H   0  0  0  0  0  0  0  0  0  0  0  0
   -4.8209    2.0002   -1.2428 H   0  0  0  0  0  0  0  0  0  0  0  0
    2.2761   -2.8517    0.4078 H   0  0  0  0  0  0  0  0  0  0  0  0
    2.3392   -5.1959    0.3800 H   0  0  0  0  0  0  0  0  0  0  0  0
    1.2234   -7.3726    0.6465 H   0  0  0  0  0  0  0  0  0  0  0  0
   -1.2213   -7.4867    1.0178 H   0  0  0  0  0  0  0  0  0  0  0  0
   -2.5526   -5.4057    1.1342 H   0  0  0  0  0  0  0  0  0  0  0  0
   -1.4913   -3.2455    0.8903 H   0  0  0  0  0  0  0  0  0  0  0  0
    3.2847    1.3527    0.9638 H   0  0  0  0  0  0  0  0  0  0  0  0
    4.6546    3.3574    0.5468 H   0  0  0  0  0  0  0  0  0  0  0  0
    3.8341    5.1405   -0.9637 H   0  0  0  0  0  0  0  0  0  0  0  0
    1.6381    4.9021   -2.0832 H   0  0  0  0  0  0  0  0  0  0  0  0
    0.2614    2.9074   -1.7038 H   0  0  0  0  0  0  0  0  0  0  0  0
  2  1  1  0  0  0  0
  3  2  2  0  0  0  0
  3 26  1  0  0  0  0
  4  3  1  0  0  0  0
  4 27  1  0  0  0  0
  5  4  2  0  0  0  0
  6  5  1  0  0  0  0
  6 28  1  0  0  0  0
  7  6  2  0  0  0  0
  7  2  1  0  0  0  0
  7 29  1  0  0  0  0
  8  5  1  0  0  0  0
  9  8  2  0  0  0  0
 10  9  1  0  0  0  0
 11 10  2  0  0  0  0
 12 11  1  0  0  0  0
 12 30  1  0  0  0  0
 13 12  1  0  0  0  0
 14 13  2  0  0  0  0
 14 31  1  0  0  0  0
 15 14  1  0  0  0  0
 15 32  1  0  0  0  0
 16 15  2  0  0  0  0
 16 33  1  0  0  0  0
 17 16  1  0  0  0  0
 17 34  1  0  0  0  0
 18 17  2  0  0  0  0
 18 13  1  0  0  0  0
 18 35  1  0  0  0  0
 19 11  1  0  0  0  0
 19  8  1  0  0  0  0
 20  9  1  0  0  0  0
 21 20  2  0  0  0  0
 21 36  1  0  0  0  0
 22 21  1  0  0  0  0
 22 37  1  0  0  0  0
 23 22  2  0  0  0  0
 23 38  1  0  0  0  0
 24 23  1  0  0  0  0
 24 39  1  0  0  0  0
 25 24  2  0  0  0  0
 25 20  1  0  0  0  0
 25 40  1  0  0  0  0
M  CHG  1   9   1
M  END
>  <MOL Chiral Flag>
0

>  <energy>
102.41857072861723

$$$$
