>130.sdf
 OpenBabel10052218423D

 68 70  0  0  0  0  0  0  0  0999 V2000
   -7.5733    0.8068    2.8043 C   0  0  0  0  0  0  0  0  0  0  0  0
   -6.9421    1.9619    2.3888 O   0  0  0  0  0  0  0  0  0  0  0  0
   -5.6748    2.0389    1.8958 C   0  0  0  0  0  0  0  0  0  0  0  0
   -4.8637    0.8969    1.7587 C   0  0  0  0  0  0  0  0  0  0  0  0
   -3.5617    0.9892    1.2517 C   0  0  0  0  0  0  0  0  0  0  0  0
   -2.7644   -0.2735    1.1374 C   0  0  0  0  0  0  0  0  0  0  0  0
   -1.4903   -0.3515    0.6858 C   0  0  0  0  0  0  0  0  0  0  0  0
   -0.7683   -1.6808    0.6304 C   0  0  0  0  0  0  0  0  0  0  0  0
   -1.3571   -2.6175    1.1500 O   0  0  0  0  0  0  0  0  0  0  0  0
    0.5154   -1.8962    0.0941 N   0  0  0  0  0  0  0  0  0  0  0  0
    1.1115   -3.2590    0.2497 C   0  0  0  0  0  0  0  0  0  0  0  0
    0.2748   -4.3672   -0.4515 C   0  0  0  0  0  0  0  0  0  0  0  0
    0.9634   -5.7334   -0.3033 C   0  0  0  0  0  0  0  0  0  0  0  0
    1.1731   -6.0701    1.1802 C   0  0  0  0  0  0  0  0  0  0  0  0
    2.0371   -4.9933    1.8524 C   0  0  0  0  0  0  0  0  0  0  0  0
    1.3730   -3.6123    1.7353 C   0  0  0  0  0  0  0  0  0  0  0  0
    1.2169   -0.8883   -0.5916 C   0  0  0  0  0  0  0  0  0  0  0  0
    0.6459    0.1420   -0.8998 O   0  0  0  0  0  0  0  0  0  0  0  0
    2.5428   -1.0066   -0.9554 N   0  0  0  0  0  0  0  0  0  0  0  0
    3.2445    0.0349   -1.7003 C   0  0  0  0  0  0  0  0  0  0  0  0
    3.7791   -0.5477   -3.0231 C   0  0  0  0  0  0  0  0  0  0  0  0
    4.5630    0.5181   -3.8029 C   0  0  0  0  0  0  0  0  0  0  0  0
    5.7238    1.0552   -2.9540 C   0  0  0  0  0  0  0  0  0  0  0  0
    5.1945    1.6434   -1.6386 C   0  0  0  0  0  0  0  0  0  0  0  0
    4.4121    0.5799   -0.8544 C   0  0  0  0  0  0  0  0  0  0  0  0
   -3.0685    2.2532    0.8750 C   0  0  0  0  0  0  0  0  0  0  0  0
   -3.8642    3.4130    1.0023 C   0  0  0  0  0  0  0  0  0  0  0  0
   -3.3842    4.6332    0.6358 O   0  0  0  0  0  0  0  0  0  0  0  0
   -2.1308    4.8922    0.1181 C   0  0  0  0  0  0  0  0  0  0  0  0
   -5.1835    3.2993    1.5203 C   0  0  0  0  0  0  0  0  0  0  0  0
   -6.0221    4.3653    1.6785 O   0  0  0  0  0  0  0  0  0  0  0  0
   -5.7711    5.6890    1.3833 C   0  0  0  0  0  0  0  0  0  0  0  0
   -7.0167    0.3456    3.6480 H   0  0  0  0  0  0  0  0  0  0  0  0
   -7.6584    0.0891    1.9606 H   0  0  0  0  0  0  0  0  0  0  0  0
   -8.5951    1.0594    3.1546 H   0  0  0  0  0  0  0  0  0  0  0  0
   -5.2439   -0.0739    2.0483 H   0  0  0  0  0  0  0  0  0  0  0  0
   -3.2619   -1.1897    1.4438 H   0  0  0  0  0  0  0  0  0  0  0  0
   -1.0141    0.5592    0.4080 H   0  0  0  0  0  0  0  0  0  0  0  0
    2.0755   -3.3629   -0.2483 H   0  0  0  0  0  0  0  0  0  0  0  0
   -0.7412   -4.4734   -0.0295 H   0  0  0  0  0  0  0  0  0  0  0  0
    0.1690   -4.1274   -1.5317 H   0  0  0  0  0  0  0  0  0  0  0  0
    1.9497   -5.7133   -0.8178 H   0  0  0  0  0  0  0  0  0  0  0  0
    0.3415   -6.5187   -0.7844 H   0  0  0  0  0  0  0  0  0  0  0  0
    0.1883   -6.1353    1.6933 H   0  0  0  0  0  0  0  0  0  0  0  0
    1.6775   -7.0563    1.2677 H   0  0  0  0  0  0  0  0  0  0  0  0
    2.1874   -5.2446    2.9242 H   0  0  0  0  0  0  0  0  0  0  0  0
    3.0352   -4.9675    1.3615 H   0  0  0  0  0  0  0  0  0  0  0  0
    2.0422   -2.8489    2.1876 H   0  0  0  0  0  0  0  0  0  0  0  0
    0.4334   -3.6329    2.3219 H   0  0  0  0  0  0  0  0  0  0  0  0
    3.1226   -1.8034   -0.6891 H   0  0  0  0  0  0  0  0  0  0  0  0
    2.5755    0.8881   -1.9501 H   0  0  0  0  0  0  0  0  0  0  0  0
    2.9315   -0.9108   -3.6438 H   0  0  0  0  0  0  0  0  0  0  0  0
    4.4492   -1.4106   -2.8107 H   0  0  0  0  0  0  0  0  0  0  0  0
    3.8822    1.3559   -4.0715 H   0  0  0  0  0  0  0  0  0  0  0  0
    4.9590    0.0779   -4.7431 H   0  0  0  0  0  0  0  0  0  0  0  0
    6.2705    1.8388   -3.5210 H   0  0  0  0  0  0  0  0  0  0  0  0
    6.4338    0.2281   -2.7312 H   0  0  0  0  0  0  0  0  0  0  0  0
    6.0441    2.0114   -1.0243 H   0  0  0  0  0  0  0  0  0  0  0  0
    4.5273    2.5054   -1.8605 H   0  0  0  0  0  0  0  0  0  0  0  0
    5.1001   -0.2515   -0.5820 H   0  0  0  0  0  0  0  0  0  0  0  0
    4.0194    1.0274    0.0842 H   0  0  0  0  0  0  0  0  0  0  0  0
   -2.0735    2.3505    0.4812 H   0  0  0  0  0  0  0  0  0  0  0  0
   -1.3445    4.6024    0.8474 H   0  0  0  0  0  0  0  0  0  0  0  0
   -1.9893    4.3483   -0.8403 H   0  0  0  0  0  0  0  0  0  0  0  0
   -2.0407    5.9798   -0.0802 H   0  0  0  0  0  0  0  0  0  0  0  0
   -4.9248    6.0689    1.9940 H   0  0  0  0  0  0  0  0  0  0  0  0
   -5.5696    5.8129    0.2982 H   0  0  0  0  0  0  0  0  0  0  0  0
   -6.6703    6.2877    1.6349 H   0  0  0  0  0  0  0  0  0  0  0  0
  1 33  1  0  0  0  0
  1 34  1  0  0  0  0
  1 35  1  0  0  0  0
  2  1  1  0  0  0  0
  3  2  1  0  0  0  0
  4  3  2  0  0  0  0
  4 36  1  0  0  0  0
  5  4  1  0  0  0  0
  6  5  1  0  0  0  0
  6 37  1  0  0  0  0
  7  6  2  0  0  0  0
  7 38  1  0  0  0  0
  8  7  1  0  0  0  0
  9  8  2  0  0  0  0
 10  8  1  0  0  0  0
 11 10  1  0  0  0  0
 11 39  1  0  0  0  0
 12 11  1  0  0  0  0
 12 40  1  0  0  0  0
 12 41  1  0  0  0  0
 13 12  1  0  0  0  0
 13 42  1  0  0  0  0
 13 43  1  0  0  0  0
 14 13  1  0  0  0  0
 14 44  1  0  0  0  0
 14 45  1  0  0  0  0
 15 14  1  0  0  0  0
 15 46  1  0  0  0  0
 15 47  1  0  0  0  0
 16 15  1  0  0  0  0
 16 11  1  0  0  0  0
 16 48  1  0  0  0  0
 16 49  1  0  0  0  0
 17 10  1  0  0  0  0
 18 17  2  0  0  0  0
 19 17  1  0  0  0  0
 19 50  1  0  0  0  0
 20 19  1  0  0  0  0
 20 51  1  0  0  0  0
 21 20  1  0  0  0  0
 21 52  1  0  0  0  0
 21 53  1  0  0  0  0
 22 21  1  0  0  0  0
 22 54  1  0  0  0  0
 22 55  1  0  0  0  0
 23 22  1  0  0  0  0
 23 56  1  0  0  0  0
 23 57  1  0  0  0  0
 24 23  1  0  0  0  0
 24 58  1  0  0  0  0
 24 59  1  0  0  0  0
 25 24  1  0  0  0  0
 25 20  1  0  0  0  0
 25 60  1  0  0  0  0
 25 61  1  0  0  0  0
 26  5  2  0  0  0  0
 26 62  1  0  0  0  0
 27 26  1  0  0  0  0
 28 27  1  0  0  0  0
 29 28  1  0  0  0  0
 29 63  1  0  0  0  0
 29 64  1  0  0  0  0
 29 65  1  0  0  0  0
 30 27  2  0  0  0  0
 30  3  1  0  0  0  0
 31 30  1  0  0  0  0
 32 31  1  0  0  0  0
 32 66  1  0  0  0  0
 32 67  1  0  0  0  0
 32 68  1  0  0  0  0
M  END
>  <MOL Chiral Flag>
0

>  <energy>
10.991687554583478

$$$$
