>131.sdf
 OpenBabel10102212433D

 53 57  0  0  0  0  0  0  0  0999 V2000
   -0.0421   -4.1333   -0.0193 F   0  0  0  0  0  0  0  0  0  0  0  0
   -1.0082   -3.1953   -0.1878 C   0  0  0  0  0  0  0  0  0  0  0  0
   -0.7010   -1.8164   -0.1896 C   0  0  0  0  0  0  0  0  0  0  0  0
   -1.7636   -0.9016   -0.3650 C   0  0  0  0  0  0  0  0  0  0  0  0
   -3.0961   -1.3213   -0.5290 C   0  0  0  0  0  0  0  0  0  0  0  0
   -4.0990   -0.2937   -0.6759 N   0  0  0  0  0  0  0  0  0  0  0  0
   -5.4524   -0.4583   -0.8449 C   0  0  0  0  0  0  0  0  0  0  0  0
   -5.9428   -1.5741   -0.8953 O   0  0  0  0  0  0  0  0  0  0  0  0
   -6.2788    0.6322   -0.9550 N   0  0  0  0  0  0  0  0  0  0  0  0
   -7.7113    0.5125   -1.1100 C   0  0  0  0  0  0  0  0  0  0  0  0
   -8.1970    1.9308   -0.8114 C   0  0  0  0  0  0  0  0  0  0  0  0
   -7.0723    2.7755   -1.3762 C   0  0  0  0  0  0  0  0  0  0  0  0
   -5.8344    2.0101   -0.9127 C   0  0  0  0  0  0  0  0  0  0  0  0
   -3.3648   -2.7085   -0.5241 C   0  0  0  0  0  0  0  0  0  0  0  0
   -2.3257   -3.6252   -0.3565 C   0  0  0  0  0  0  0  0  0  0  0  0
    0.7131   -1.3401    0.0303 C   0  0  0  0  0  0  0  0  0  0  0  0
    1.6892   -2.2495    0.3398 N   0  0  0  0  0  0  0  0  0  0  0  0
    2.9494   -1.8267    0.6113 C   0  0  0  0  0  0  0  0  0  0  0  0
    3.9640   -2.6246    0.9982 N   0  0  0  0  0  0  0  0  0  0  0  0
    4.9920   -1.7745    1.2350 C   0  0  0  0  0  0  0  0  0  0  0  0
    4.5763   -0.4768    0.9640 C   0  0  0  0  0  0  0  0  0  0  0  0
    3.2817   -0.5277    0.5815 N   0  0  0  0  0  0  0  0  0  0  0  0
    2.3709    0.4292    0.2752 C   0  0  0  0  0  0  0  0  0  0  0  0
    1.0615    0.0398   -0.0133 C   0  0  0  0  0  0  0  0  0  0  0  0
    5.3603    0.7123    1.1356 N   0  0  0  0  0  0  0  0  0  0  0  0
    5.2166    1.8749    0.2780 C   0  0  0  0  0  0  0  0  0  0  0  0
    6.6047    2.2200   -0.2817 C   0  0  0  0  0  0  0  0  0  0  0  0
    7.5377    2.4091    0.7709 O   0  0  0  0  0  0  0  0  0  0  0  0
    7.7067    1.1946    1.4865 C   0  0  0  0  0  0  0  0  0  0  0  0
    6.3918    0.7884    2.1549 C   0  0  0  0  0  0  0  0  0  0  0  0
   -1.5843    0.1571   -0.3609 H   0  0  0  0  0  0  0  0  0  0  0  0
   -3.7458    0.6714   -0.6365 H   0  0  0  0  0  0  0  0  0  0  0  0
   -8.1753   -0.1885   -0.3824 H   0  0  0  0  0  0  0  0  0  0  0  0
   -7.9271    0.1961   -2.1540 H   0  0  0  0  0  0  0  0  0  0  0  0
   -9.2141    2.1615   -1.1923 H   0  0  0  0  0  0  0  0  0  0  0  0
   -8.1865    2.0794    0.2931 H   0  0  0  0  0  0  0  0  0  0  0  0
   -7.0813    3.8502   -1.0963 H   0  0  0  0  0  0  0  0  0  0  0  0
   -7.1369    2.6956   -2.4859 H   0  0  0  0  0  0  0  0  0  0  0  0
   -5.5478    2.2568    0.1335 H   0  0  0  0  0  0  0  0  0  0  0  0
   -5.0043    2.2339   -1.6175 H   0  0  0  0  0  0  0  0  0  0  0  0
   -4.3508   -3.1157   -0.6384 H   0  0  0  0  0  0  0  0  0  0  0  0
   -2.5467   -4.6854   -0.3499 H   0  0  0  0  0  0  0  0  0  0  0  0
    5.9694   -2.0894    1.5743 H   0  0  0  0  0  0  0  0  0  0  0  0
    2.6136    1.4785    0.2841 H   0  0  0  0  0  0  0  0  0  0  0  0
    0.3553    0.8179   -0.2394 H   0  0  0  0  0  0  0  0  0  0  0  0
    4.8472    2.7324    0.8811 H   0  0  0  0  0  0  0  0  0  0  0  0
    4.5449    1.6926   -0.5835 H   0  0  0  0  0  0  0  0  0  0  0  0
    6.9620    1.4269   -0.9775 H   0  0  0  0  0  0  0  0  0  0  0  0
    6.5330    3.1574   -0.8727 H   0  0  0  0  0  0  0  0  0  0  0  0
    8.4731    1.3477    2.2755 H   0  0  0  0  0  0  0  0  0  0  0  0
    8.0819    0.3894    0.8160 H   0  0  0  0  0  0  0  0  0  0  0  0
    6.1099    1.5849    2.8782 H   0  0  0  0  0  0  0  0  0  0  0  0
    6.5061   -0.1560    2.7258 H   0  0  0  0  0  0  0  0  0  0  0  0
  2  1  1  0  0  0  0
  3  2  2  0  0  0  0
  4  3  1  0  0  0  0
  4 31  1  0  0  0  0
  5  4  2  0  0  0  0
  6  5  1  0  0  0  0
  6 32  1  0  0  0  0
  7  6  1  0  0  0  0
  8  7  2  0  0  0  0
  9  7  1  0  0  0  0
 10  9  1  0  0  0  0
 10 33  1  0  0  0  0
 10 34  1  0  0  0  0
 11 10  1  0  0  0  0
 11 35  1  0  0  0  0
 11 36  1  0  0  0  0
 12 11  1  0  0  0  0
 12 37  1  0  0  0  0
 12 38  1  0  0  0  0
 13 12  1  0  0  0  0
 13  9  1  0  0  0  0
 13 39  1  0  0  0  0
 13 40  1  0  0  0  0
 14  5  1  0  0  0  0
 14 41  1  0  0  0  0
 15 14  2  0  0  0  0
 15  2  1  0  0  0  0
 15 42  1  0  0  0  0
 16  3  1  0  0  0  0
 17 16  2  0  0  0  0
 18 17  1  0  0  0  0
 19 18  2  0  0  0  0
 20 19  1  0  0  0  0
 20 43  1  0  0  0  0
 21 20  2  0  0  0  0
 22 21  1  0  0  0  0
 22 18  1  0  0  0  0
 23 22  1  0  0  0  0
 23 44  1  0  0  0  0
 24 23  2  0  0  0  0
 24 16  1  0  0  0  0
 24 45  1  0  0  0  0
 25 21  1  0  0  0  0
 26 25  1  0  0  0  0
 26 46  1  0  0  0  0
 26 47  1  0  0  0  0
 27 26  1  0  0  0  0
 27 48  1  0  0  0  0
 27 49  1  0  0  0  0
 28 27  1  0  0  0  0
 29 28  1  0  0  0  0
 29 50  1  0  0  0  0
 29 51  1  0  0  0  0
 30 29  1  0  0  0  0
 30 25  1  0  0  0  0
 30 52  1  0  0  0  0
 30 53  1  0  0  0  0
M  END
>  <MOL Chiral Flag>
0

>  <energy>
2.38043208864039

$$$$
