>142_2.sdf
 OpenBabel10102213123D

 45 48  0  0  0  0  0  0  0  0999 V2000
   -5.9350    0.3569    0.0481 C   0  0  0  0  0  0  0  0  0  0  0  0
   -4.7539    0.6307    0.7302 O   0  0  0  0  0  0  0  0  0  0  0  0
   -3.6504    0.8972   -0.0013 C   0  0  0  0  0  0  0  0  0  0  0  0
   -3.5706    2.1043   -0.7061 C   0  0  0  0  0  0  0  0  0  0  0  0
   -4.3865    3.1438   -0.4047 O   0  0  0  0  0  0  0  0  0  0  0  0
   -4.1131    3.8726    0.7502 C   0  0  0  0  0  0  0  0  0  0  0  0
   -2.5923    2.2665   -1.6772 C   0  0  0  0  0  0  0  0  0  0  0  0
   -2.5866    3.7378   -2.6516 Cl  0  0  0  0  0  0  0  0  0  0  0  0
   -1.6015    1.2822   -1.8517 C   0  0  0  0  0  0  0  0  0  0  0  0
   -1.5231    0.1419   -0.9881 C   0  0  0  0  0  0  0  0  0  0  0  0
   -2.6136   -0.0576   -0.1040 C   0  0  0  0  0  0  0  0  0  0  0  0
   -0.3274   -0.8885   -1.1038 C   0  0  2  0  0  0  0  0  0  0  0  0
   -0.6876   -2.3720   -0.7813 C   0  0  0  0  0  0  0  0  0  0  0  0
   -1.8069   -3.0121   -1.4344 C   0  0  0  0  0  0  0  0  0  0  0  0
   -2.6828   -3.5882   -1.9242 N   0  0  0  0  0  0  0  0  0  0  0  0
    0.0951   -3.1315    0.0446 C   0  0  0  0  0  0  0  0  0  0  0  0
   -0.1457   -4.5156    0.2833 N   0  0  0  0  0  0  0  0  0  0  0  0
    1.1720   -2.6059    0.6410 O   0  0  0  0  0  0  0  0  0  0  0  0
    1.7025   -1.4087    0.3649 C   0  0  0  0  0  0  0  0  0  0  0  0
    1.0554   -0.5156   -0.4464 C   0  0  0  0  0  0  0  0  0  0  0  0
    1.7842    0.7437   -0.7922 C   0  0  0  0  0  0  0  0  0  0  0  0
    1.2748    1.5499   -1.5493 O   0  0  0  0  0  0  0  0  0  0  0  0
    3.1649    0.9986   -0.2676 C   0  0  0  0  0  0  0  0  0  0  0  0
    3.7831    0.0699    0.5868 C   0  0  0  0  0  0  0  0  0  0  0  0
    5.0788    0.3211    1.0928 C   0  0  0  0  0  0  0  0  0  0  0  0
    5.7465    1.4965    0.7429 C   0  0  0  0  0  0  0  0  0  0  0  0
    5.1413    2.4081   -0.1234 C   0  0  0  0  0  0  0  0  0  0  0  0
    3.8623    2.1597   -0.6289 C   0  0  0  0  0  0  0  0  0  0  0  0
    3.0595   -1.1609    0.9215 C   0  0  0  0  0  0  0  0  0  0  0  0
    3.5997   -2.0241    1.6011 O   0  0  0  0  0  0  0  0  0  0  0  0
   -6.2048    1.1819   -0.6516 H   0  0  0  0  0  0  0  0  0  0  0  0
   -5.8031   -0.5634   -0.5674 H   0  0  0  0  0  0  0  0  0  0  0  0
   -6.7784    0.1970    0.7476 H   0  0  0  0  0  0  0  0  0  0  0  0
   -3.0207    4.1021    0.8044 H   0  0  0  0  0  0  0  0  0  0  0  0
   -4.6451    4.8460    0.7529 H   0  0  0  0  0  0  0  0  0  0  0  0
   -4.3774    3.2978    1.6647 H   0  0  0  0  0  0  0  0  0  0  0  0
   -0.8824    1.4429   -2.6402 H   0  0  0  0  0  0  0  0  0  0  0  0
   -2.6734   -0.9499    0.4979 H   0  0  0  0  0  0  0  0  0  0  0  0
   -0.0893   -0.8595   -2.1854 H   0  0  0  0  0  0  0  0  0  0  0  0
    0.5271   -5.0402    0.8675 H   0  0  0  0  0  0  0  0  0  0  0  0
   -0.8993   -5.0428   -0.1748 H   0  0  0  0  0  0  0  0  0  0  0  0
    5.5709   -0.3842    1.7569 H   0  0  0  0  0  0  0  0  0  0  0  0
    6.7350    1.7015    1.1382 H   0  0  0  0  0  0  0  0  0  0  0  0
    5.6604    3.3135   -0.4039 H   0  0  0  0  0  0  0  0  0  0  0  0
    3.4122    2.8739   -1.3012 H   0  0  0  0  0  0  0  0  0  0  0  0
  1 31  1  0  0  0  0
  1 32  1  0  0  0  0
  1 33  1  0  0  0  0
  2  1  1  0  0  0  0
  3  2  1  0  0  0  0
  4  3  2  0  0  0  0
  5  4  1  0  0  0  0
  6  5  1  0  0  0  0
  6 34  1  0  0  0  0
  6 35  1  0  0  0  0
  6 36  1  0  0  0  0
  7  4  1  0  0  0  0
  8  7  1  0  0  0  0
  9  7  2  0  0  0  0
  9 37  1  0  0  0  0
 10  9  1  0  0  0  0
 11 10  2  0  0  0  0
 11  3  1  0  0  0  0
 11 38  1  0  0  0  0
 12 10  1  0  0  0  0
 12 39  1  6  0  0  0
 13 12  1  0  0  0  0
 14 13  1  0  0  0  0
 15 14  3  0  0  0  0
 16 13  2  0  0  0  0
 17 16  1  0  0  0  0
 17 40  1  0  0  0  0
 17 41  1  0  0  0  0
 18 16  1  0  0  0  0
 19 18  1  0  0  0  0
 20 19  2  0  0  0  0
 20 12  1  0  0  0  0
 21 20  1  0  0  0  0
 22 21  2  0  0  0  0
 23 21  1  0  0  0  0
 24 23  2  0  0  0  0
 25 24  1  0  0  0  0
 25 42  1  0  0  0  0
 26 25  2  0  0  0  0
 26 43  1  0  0  0  0
 27 26  1  0  0  0  0
 27 44  1  0  0  0  0
 28 27  2  0  0  0  0
 28 23  1  0  0  0  0
 28 45  1  0  0  0  0
 29 24  1  0  0  0  0
 29 19  1  0  0  0  0
 30 29  2  0  0  0  0
M  END
>  <MOL Chiral Flag>
0

>  <energy>
111.10239027283049

$$$$
