>144.sdf
 OpenBabel10052220033D

 50 54  0  0  0  0  0  0  0  0999 V2000
    2.2228   -5.3292   -0.5423 F   0  0  0  0  0  0  0  0  0  0  0  0
    0.9658   -4.8184   -0.5616 C   0  0  0  0  0  0  0  0  0  0  0  0
    0.7576   -3.4504   -0.7908 C   0  0  0  0  0  0  0  0  0  0  0  0
   -0.5215   -2.9656   -0.8156 C   0  0  0  0  0  0  0  0  0  0  0  0
   -1.6303   -3.7638   -0.5662 C   0  0  0  0  0  0  0  0  0  0  0  0
   -2.8471   -3.0381   -0.5018 N   0  0  0  0  0  0  0  0  0  0  0  0
   -4.0742   -3.3713   -0.0230 C   0  0  0  0  0  0  0  0  0  0  0  0
   -4.3442   -4.5202    0.2870 O   0  0  0  0  0  0  0  0  0  0  0  0
   -4.9830   -2.3541    0.1682 N   0  0  0  0  0  0  0  0  0  0  0  0
   -4.6280   -0.9504    0.0160 C   0  0  0  0  0  0  0  0  0  0  0  0
   -5.9234   -0.2199    0.2450 C   0  0  0  0  0  0  0  0  0  0  0  0
   -6.6020   -1.1221    1.2576 C   0  0  0  0  0  0  0  0  0  0  0  0
   -6.3057   -2.5278    0.7107 C   0  0  0  0  0  0  0  0  0  0  0  0
   -1.4458   -5.1404   -0.3239 C   0  0  0  0  0  0  0  0  0  0  0  0
   -0.1352   -5.6647   -0.3436 C   0  0  0  0  0  0  0  0  0  0  0  0
    1.8551   -2.4851   -0.9259 C   0  0  0  0  0  0  0  0  0  0  0  0
    3.1218   -2.7753   -0.5571 N   0  0  0  0  0  0  0  0  0  0  0  0
    3.7790   -1.6356   -0.7754 C   0  0  0  0  0  0  0  0  0  0  0  0
    2.9514   -0.6904   -1.2756 C   0  0  0  0  0  0  0  0  0  0  0  0
    1.7206   -1.1948   -1.3614 N   0  0  0  0  0  0  0  0  0  0  0  0
    3.4154    0.5642   -1.6332 C   0  0  0  0  0  0  0  0  0  0  0  0
    4.7999    0.8154   -1.4478 C   0  0  0  0  0  0  0  0  0  0  0  0
    5.6128   -0.2078   -0.8691 C   0  0  0  0  0  0  0  0  0  0  0  0
    5.0866   -1.4215   -0.5519 N   0  0  0  0  0  0  0  0  0  0  0  0
    5.4209    2.0867   -1.9001 C   0  0  0  0  0  0  0  0  0  0  0  0
    4.8659    2.8047   -2.9784 C   0  0  0  0  0  0  0  0  0  0  0  0
    5.4885    3.9604   -3.4502 C   0  0  0  0  0  0  0  0  0  0  0  0
    6.6578    4.4236   -2.8452 C   0  0  0  0  0  0  0  0  0  0  0  0
    7.2117    3.7281   -1.7700 C   0  0  0  0  0  0  0  0  0  0  0  0
    6.6054    2.5632   -1.3030 C   0  0  0  0  0  0  0  0  0  0  0  0
   -0.6757   -1.9089   -0.9618 H   0  0  0  0  0  0  0  0  0  0  0  0
   -2.7329   -2.0660   -0.7779 H   0  0  0  0  0  0  0  0  0  0  0  0
   -4.2506   -0.6695   -0.9924 H   0  0  0  0  0  0  0  0  0  0  0  0
   -3.8722   -0.7038    0.8008 H   0  0  0  0  0  0  0  0  0  0  0  0
   -6.5040   -0.2639   -0.7023 H   0  0  0  0  0  0  0  0  0  0  0  0
   -5.7738    0.8429    0.5356 H   0  0  0  0  0  0  0  0  0  0  0  0
   -7.6723   -0.8960    1.4297 H   0  0  0  0  0  0  0  0  0  0  0  0
   -6.0456   -0.9991    2.2167 H   0  0  0  0  0  0  0  0  0  0  0  0
   -6.9857   -2.7998   -0.1252 H   0  0  0  0  0  0  0  0  0  0  0  0
   -6.3594   -3.2658    1.5382 H   0  0  0  0  0  0  0  0  0  0  0  0
   -2.2734   -5.8022   -0.1144 H   0  0  0  0  0  0  0  0  0  0  0  0
    0.0374   -6.7180   -0.1632 H   0  0  0  0  0  0  0  0  0  0  0  0
    0.8756   -0.6819   -1.7049 H   0  0  0  0  0  0  0  0  0  0  0  0
    2.7367    1.3029   -2.0455 H   0  0  0  0  0  0  0  0  0  0  0  0
    6.6703   -0.0681   -0.7284 H   0  0  0  0  0  0  0  0  0  0  0  0
    3.9766    2.4544   -3.4850 H   0  0  0  0  0  0  0  0  0  0  0  0
    5.0675    4.4904   -4.2939 H   0  0  0  0  0  0  0  0  0  0  0  0
    7.1379    5.3192   -3.2126 H   0  0  0  0  0  0  0  0  0  0  0  0
    8.1174    4.0857   -1.2994 H   0  0  0  0  0  0  0  0  0  0  0  0
    7.0589    2.0469   -0.4685 H   0  0  0  0  0  0  0  0  0  0  0  0
  2  1  1  0  0  0  0
  3  2  2  0  0  0  0
  4  3  1  0  0  0  0
  4 31  1  0  0  0  0
  5  4  2  0  0  0  0
  6  5  1  0  0  0  0
  6 32  1  0  0  0  0
  7  6  1  0  0  0  0
  8  7  2  0  0  0  0
  9  7  1  0  0  0  0
 10  9  1  0  0  0  0
 10 33  1  0  0  0  0
 10 34  1  0  0  0  0
 11 10  1  0  0  0  0
 11 35  1  0  0  0  0
 11 36  1  0  0  0  0
 12 11  1  0  0  0  0
 12 37  1  0  0  0  0
 12 38  1  0  0  0  0
 13 12  1  0  0  0  0
 13  9  1  0  0  0  0
 13 39  1  0  0  0  0
 13 40  1  0  0  0  0
 14  5  1  0  0  0  0
 14 41  1  0  0  0  0
 15 14  2  0  0  0  0
 15  2  1  0  0  0  0
 15 42  1  0  0  0  0
 16  3  1  0  0  0  0
 17 16  2  0  0  0  0
 18 17  1  0  0  0  0
 19 18  2  0  0  0  0
 20 19  1  0  0  0  0
 20 16  1  0  0  0  0
 20 43  1  0  0  0  0
 21 19  1  0  0  0  0
 21 44  1  0  0  0  0
 22 21  2  0  0  0  0
 23 22  1  0  0  0  0
 23 45  1  0  0  0  0
 24 23  2  0  0  0  0
 24 18  1  0  0  0  0
 25 22  1  0  0  0  0
 26 25  2  0  0  0  0
 26 46  1  0  0  0  0
 27 26  1  0  0  0  0
 27 47  1  0  0  0  0
 28 27  2  0  0  0  0
 28 48  1  0  0  0  0
 29 28  1  0  0  0  0
 29 49  1  0  0  0  0
 30 29  2  0  0  0  0
 30 25  1  0  0  0  0
 30 50  1  0  0  0  0
M  END
>  <MOL Chiral Flag>
0

>  <energy>
21.519682240749432

$$$$
