>145.sdf
 OpenBabel10052220043D

 47 49  0  0  0  0  0  0  0  0999 V2000
   -3.1001   -0.5980    0.1519 C   0  0  0  0  0  0  0  0  0  0  0  0
   -3.5758    0.4572   -0.8612 C   0  0  0  0  0  0  0  0  0  0  0  0
   -2.7605    0.4957   -2.1624 C   0  0  0  0  0  0  0  0  0  0  0  0
   -3.7338    1.7970   -0.2318 N   0  0  0  0  0  0  0  0  0  0  0  0
   -4.9001    2.5063   -0.1655 C   0  0  0  0  0  0  0  0  0  0  0  0
   -6.2314    2.1322   -0.7636 C   0  0  0  0  0  0  0  0  0  0  0  0
   -4.7602    3.6542    0.5259 N   0  0  0  0  0  0  0  0  0  0  0  0
   -3.4782    3.6877    0.9193 C   0  0  0  0  0  0  0  0  0  0  0  0
   -2.8272    2.5618    0.4538 C   0  0  0  0  0  0  0  0  0  0  0  0
   -1.3849    2.2765    0.7190 C   0  0  0  0  0  0  0  0  0  0  0  0
   -0.7068    1.4113   -0.0664 N   0  0  0  0  0  0  0  0  0  0  0  0
    0.5921    1.0888    0.1493 C   0  0  0  0  0  0  0  0  0  0  0  0
    1.2300    0.1946   -0.7568 N   0  0  0  0  0  0  0  0  0  0  0  0
    2.4005   -0.5882   -0.5046 C   0  0  0  0  0  0  0  0  0  0  0  0
    2.9588   -0.7438    0.7829 C   0  0  0  0  0  0  0  0  0  0  0  0
    4.0515   -1.5943    0.9777 C   0  0  0  0  0  0  0  0  0  0  0  0
    4.6031   -2.2964   -0.0979 C   0  0  0  0  0  0  0  0  0  0  0  0
    4.0654   -2.1376   -1.3783 C   0  0  0  0  0  0  0  0  0  0  0  0
    2.9721   -1.2942   -1.5779 C   0  0  0  0  0  0  0  0  0  0  0  0
    5.9573   -3.4360    0.1919 S   0  0  0  0  0  0  0  0  0  0  0  0
    5.7981   -4.9181    1.2284 C   0  0  0  0  0  0  0  0  0  0  0  0
    6.5160   -3.8753   -1.1708 O   0  0  0  0  0  0  0  0  0  0  0  0
    7.1576   -2.6198    0.6937 O   0  0  0  0  0  0  0  0  0  0  0  0
    1.2602    1.6645    1.1840 N   0  0  0  0  0  0  0  0  0  0  0  0
    0.6398    2.5607    1.9961 C   0  0  0  0  0  0  0  0  0  0  0  0
   -0.6986    2.8945    1.7772 C   0  0  0  0  0  0  0  0  0  0  0  0
   -2.0944   -0.4120    0.5598 H   0  0  0  0  0  0  0  0  0  0  0  0
   -3.0845   -1.6019   -0.3230 H   0  0  0  0  0  0  0  0  0  0  0  0
   -3.8071   -0.6322    1.0082 H   0  0  0  0  0  0  0  0  0  0  0  0
   -4.5554    0.0753   -1.1862 H   0  0  0  0  0  0  0  0  0  0  0  0
   -3.2509    1.1875   -2.8789 H   0  0  0  0  0  0  0  0  0  0  0  0
   -1.7178    0.8187   -2.0570 H   0  0  0  0  0  0  0  0  0  0  0  0
   -2.7451   -0.5171   -2.6200 H   0  0  0  0  0  0  0  0  0  0  0  0
   -6.5453    2.9373   -1.4600 H   0  0  0  0  0  0  0  0  0  0  0  0
   -6.9828    2.0546    0.0490 H   0  0  0  0  0  0  0  0  0  0  0  0
   -6.2589    1.1920   -1.3361 H   0  0  0  0  0  0  0  0  0  0  0  0
   -3.0542    4.4965    1.4977 H   0  0  0  0  0  0  0  0  0  0  0  0
    0.7535    0.0437   -1.6595 H   0  0  0  0  0  0  0  0  0  0  0  0
    2.5454   -0.2563    1.6482 H   0  0  0  0  0  0  0  0  0  0  0  0
    4.4553   -1.7256    1.9737 H   0  0  0  0  0  0  0  0  0  0  0  0
    4.4772   -2.6799   -2.2191 H   0  0  0  0  0  0  0  0  0  0  0  0
    2.5561   -1.1990   -2.5735 H   0  0  0  0  0  0  0  0  0  0  0  0
    4.7389   -5.2500    1.2210 H   0  0  0  0  0  0  0  0  0  0  0  0
    6.4243   -5.7369    0.8190 H   0  0  0  0  0  0  0  0  0  0  0  0
    6.1038   -4.6857    2.2691 H   0  0  0  0  0  0  0  0  0  0  0  0
    1.1837    3.0119    2.8154 H   0  0  0  0  0  0  0  0  0  0  0  0
   -1.1864    3.5973    2.4383 H   0  0  0  0  0  0  0  0  0  0  0  0
  1 27  1  0  0  0  0
  1 28  1  0  0  0  0
  1 29  1  0  0  0  0
  2  1  1  0  0  0  0
  2 30  1  0  0  0  0
  3  2  1  0  0  0  0
  3 31  1  0  0  0  0
  3 32  1  0  0  0  0
  3 33  1  0  0  0  0
  4  2  1  0  0  0  0
  5  4  1  0  0  0  0
  6  5  1  0  0  0  0
  6 34  1  0  0  0  0
  6 35  1  0  0  0  0
  6 36  1  0  0  0  0
  7  5  2  0  0  0  0
  8  7  1  0  0  0  0
  8 37  1  0  0  0  0
  9  8  2  0  0  0  0
  9  4  1  0  0  0  0
 10  9  1  0  0  0  0
 11 10  2  0  0  0  0
 12 11  1  0  0  0  0
 13 12  1  0  0  0  0
 13 38  1  0  0  0  0
 14 13  1  0  0  0  0
 15 14  2  0  0  0  0
 15 39  1  0  0  0  0
 16 15  1  0  0  0  0
 16 40  1  0  0  0  0
 17 16  2  0  0  0  0
 18 17  1  0  0  0  0
 18 41  1  0  0  0  0
 19 18  2  0  0  0  0
 19 14  1  0  0  0  0
 19 42  1  0  0  0  0
 20 17  1  0  0  0  0
 21 20  1  0  0  0  0
 21 43  1  0  0  0  0
 21 44  1  0  0  0  0
 21 45  1  0  0  0  0
 22 20  2  0  0  0  0
 23 20  2  0  0  0  0
 24 12  2  0  0  0  0
 25 24  1  0  0  0  0
 25 46  1  0  0  0  0
 26 25  2  0  0  0  0
 26 10  1  0  0  0  0
 26 47  1  0  0  0  0
M  END
>  <MOL Chiral Flag>
0

>  <energy>
-12.549618383981752

$$$$
