>153.sdf
 OpenBabel10052220083D

 34 35  0  0  0  0  0  0  0  0999 V2000
    1.9848    0.3556   -4.1780 C   0  0  0  0  0  0  0  0  0  0  0  0
    2.8790    0.4810   -3.1357 O   0  0  0  0  0  0  0  0  0  0  0  0
    2.5727    0.3419   -1.8164 C   0  0  0  0  0  0  0  0  0  0  0  0
    1.2426    0.2733   -1.3522 C   0  0  0  0  0  0  0  0  0  0  0  0
    0.9751    0.0833    0.0229 C   0  0  0  0  0  0  0  0  0  0  0  0
   -0.4075   -0.0116    0.5832 C   0  0  0  0  0  0  0  0  0  0  0  0
   -1.5415    0.2077   -0.1199 C   0  0  0  0  0  0  0  0  0  0  0  0
   -2.9174    0.0842    0.4545 C   0  0  0  0  0  0  0  0  0  0  0  0
   -3.1691   -0.4085    1.7566 C   0  0  0  0  0  0  0  0  0  0  0  0
   -4.4802   -0.5173    2.2302 C   0  0  0  0  0  0  0  0  0  0  0  0
   -5.5533   -0.1364    1.4246 C   0  0  0  0  0  0  0  0  0  0  0  0
   -5.3202    0.3536    0.1392 C   0  0  0  0  0  0  0  0  0  0  0  0
   -4.0127    0.4610   -0.3456 C   0  0  0  0  0  0  0  0  0  0  0  0
    2.0561   -0.0514    0.9106 C   0  0  0  0  0  0  0  0  0  0  0  0
    3.3845    0.0255    0.4518 C   0  0  0  0  0  0  0  0  0  0  0  0
    4.4527   -0.1201    1.2793 O   0  0  0  0  0  0  0  0  0  0  0  0
    4.3990   -0.6222    2.5642 C   0  0  0  0  0  0  0  0  0  0  0  0
    3.6270    0.2382   -0.9074 C   0  0  0  0  0  0  0  0  0  0  0  0
    1.1901    1.1271   -4.1140 H   0  0  0  0  0  0  0  0  0  0  0  0
    2.5291    0.4864   -5.1359 H   0  0  0  0  0  0  0  0  0  0  0  0
    1.5374   -0.6624   -4.1688 H   0  0  0  0  0  0  0  0  0  0  0  0
    0.4352    0.3529   -2.0586 H   0  0  0  0  0  0  0  0  0  0  0  0
   -0.4756   -0.2653    1.6313 H   0  0  0  0  0  0  0  0  0  0  0  0
   -1.4783    0.4988   -1.1597 H   0  0  0  0  0  0  0  0  0  0  0  0
   -2.3735   -0.7230    2.4118 H   0  0  0  0  0  0  0  0  0  0  0  0
   -4.6635   -0.9018    3.2255 H   0  0  0  0  0  0  0  0  0  0  0  0
   -6.5662   -0.2233    1.7964 H   0  0  0  0  0  0  0  0  0  0  0  0
   -6.1544    0.6487   -0.4843 H   0  0  0  0  0  0  0  0  0  0  0  0
   -3.8538    0.8419   -1.3472 H   0  0  0  0  0  0  0  0  0  0  0  0
    1.8542   -0.2122    1.9619 H   0  0  0  0  0  0  0  0  0  0  0  0
    5.4221   -0.6255    2.9924 H   0  0  0  0  0  0  0  0  0  0  0  0
    4.0278   -1.6698    2.5380 H   0  0  0  0  0  0  0  0  0  0  0  0
    3.7499    0.0007    3.2133 H   0  0  0  0  0  0  0  0  0  0  0  0
    4.6478    0.2890   -1.2639 H   0  0  0  0  0  0  0  0  0  0  0  0
  1 19  1  0  0  0  0
  1 20  1  0  0  0  0
  1 21  1  0  0  0  0
  2  1  1  0  0  0  0
  3  2  1  0  0  0  0
  4  3  2  0  0  0  0
  4 22  1  0  0  0  0
  5  4  1  0  0  0  0
  6  5  1  0  0  0  0
  6 23  1  0  0  0  0
  7  6  2  0  0  0  0
  7 24  1  0  0  0  0
  8  7  1  0  0  0  0
  9  8  2  0  0  0  0
  9 25  1  0  0  0  0
 10  9  1  0  0  0  0
 10 26  1  0  0  0  0
 11 10  2  0  0  0  0
 11 27  1  0  0  0  0
 12 11  1  0  0  0  0
 12 28  1  0  0  0  0
 13 12  2  0  0  0  0
 13  8  1  0  0  0  0
 13 29  1  0  0  0  0
 14  5  2  0  0  0  0
 14 30  1  0  0  0  0
 15 14  1  0  0  0  0
 16 15  1  0  0  0  0
 17 16  1  0  0  0  0
 17 31  1  0  0  0  0
 17 32  1  0  0  0  0
 17 33  1  0  0  0  0
 18 15  2  0  0  0  0
 18  3  1  0  0  0  0
 18 34  1  0  0  0  0
M  END
>  <MOL Chiral Flag>
0

>  <energy>
47.256770904142797

$$$$
