>158.sdf
 OpenBabel10052220103D

 66 67  0  0  0  0  0  0  0  0999 V2000
   -0.1903    0.5423   -5.4317 C   0  0  0  0  0  0  0  0  0  0  0  0
   -0.6402    0.9917   -4.0475 C   0  0  0  0  0  0  0  0  0  0  0  0
   -1.9167    0.2477   -3.6032 C   0  0  0  0  0  0  0  0  0  0  0  0
   -2.3640    0.6708   -2.1905 C   0  0  0  0  0  0  0  0  0  0  0  0
   -1.6787   -0.0336   -0.9484 C   0  0  0  0  0  0  0  0  0  0  0  0
   -1.9814    0.8916    0.2761 C   0  0  0  0  0  0  0  0  0  0  0  0
   -1.0924    2.1670    0.2746 C   0  0  0  0  0  0  0  0  0  0  0  0
   -1.4490    3.1388    1.4002 C   0  0  0  0  0  0  0  0  0  0  0  0
   -0.5137    4.3495    1.3789 C   0  0  0  0  0  0  0  0  0  0  0  0
   -2.2764   -1.4829   -0.7688 C   0  0  0  0  0  0  0  0  0  0  0  0
   -1.1977   -2.5444   -0.4093 C   0  0  2  0  0  0  0  0  0  0  0  0
   -0.8605   -2.7428    1.0963 C   0  0  0  0  0  0  0  0  0  0  0  0
   -0.5566   -1.5069    1.8178 N   0  0  0  0  0  0  0  0  0  0  0  0
    0.6847   -1.5487    2.6020 C   0  0  0  0  0  0  0  0  0  0  0  0
    0.6493   -0.4197    3.6428 C   0  0  0  0  0  0  0  0  0  0  0  0
    1.9700   -0.1363    4.3663 C   0  0  0  0  0  0  0  0  0  0  0  0
    2.8890    0.5993    3.4967 N   0  0  0  0  0  0  0  0  0  0  0  0
    3.1312    1.9200    3.5598 C   0  0  0  0  0  0  0  0  0  0  0  0
    4.0196    2.2419    2.5629 C   0  0  0  0  0  0  0  0  0  0  0  0
    4.3424    1.1209    1.8834 N   0  0  0  0  0  0  0  0  0  0  0  0
    3.6374    0.1350    2.4757 C   0  0  0  0  0  0  0  0  0  0  0  0
    0.0357   -2.3490   -1.3701 C   0  0  2  0  0  0  0  0  0  0  0  0
   -0.1220   -3.3011   -2.5709 C   0  0  0  0  0  0  0  0  0  0  0  0
    1.2540   -2.7099   -0.7168 O   0  0  0  0  0  0  0  0  0  0  0  0
    2.2681   -1.7314   -0.8089 C   0  0  0  0  0  0  0  0  0  0  0  0
    0.0467   -1.0477   -1.9487 O   0  0  0  0  0  0  0  0  0  0  0  0
   -0.2661   -0.1357   -1.0386 O   0  0  0  0  0  0  0  0  0  0  0  0
   -0.9953    0.7107   -6.1777 H   0  0  0  0  0  0  0  0  0  0  0  0
    0.7057    1.1244   -5.7350 H   0  0  0  0  0  0  0  0  0  0  0  0
    0.0755   -0.5360   -5.4114 H   0  0  0  0  0  0  0  0  0  0  0  0
    0.2024    0.8431   -3.3488 H   0  0  0  0  0  0  0  0  0  0  0  0
   -0.8526    2.0835   -4.0765 H   0  0  0  0  0  0  0  0  0  0  0  0
   -1.8189   -0.8533   -3.6774 H   0  0  0  0  0  0  0  0  0  0  0  0
   -2.7116    0.5546   -4.3186 H   0  0  0  0  0  0  0  0  0  0  0  0
   -2.2901    1.7736   -2.1786 H   0  0  0  0  0  0  0  0  0  0  0  0
   -3.4539    0.4658   -2.0919 H   0  0  0  0  0  0  0  0  0  0  0  0
   -3.0616    1.1562    0.2840 H   0  0  0  0  0  0  0  0  0  0  0  0
   -1.7855    0.3996    1.2316 H   0  0  0  0  0  0  0  0  0  0  0  0
   -1.1741    2.7262   -0.6763 H   0  0  0  0  0  0  0  0  0  0  0  0
   -0.0284    1.8623    0.3944 H   0  0  0  0  0  0  0  0  0  0  0  0
   -1.3620    2.6322    2.3849 H   0  0  0  0  0  0  0  0  0  0  0  0
   -2.4950    3.4883    1.2621 H   0  0  0  0  0  0  0  0  0  0  0  0
   -0.7984    5.0608    2.1815 H   0  0  0  0  0  0  0  0  0  0  0  0
    0.5377    4.0286    1.5445 H   0  0  0  0  0  0  0  0  0  0  0  0
   -0.5780    4.8759    0.4016 H   0  0  0  0  0  0  0  0  0  0  0  0
   -3.1945   -1.5179   -0.1440 H   0  0  0  0  0  0  0  0  0  0  0  0
   -2.6102   -1.8171   -1.7733 H   0  0  0  0  0  0  0  0  0  0  0  0
   -1.6341   -3.5484   -0.6254 H   0  0  0  0  0  0  0  0  0  0  0  0
   -1.7539   -3.2087    1.5765 H   0  0  0  0  0  0  0  0  0  0  0  0
   -0.0576   -3.5078    1.2008 H   0  0  0  0  0  0  0  0  0  0  0  0
   -1.3579   -1.3468    2.4751 H   0  0  0  0  0  0  0  0  0  0  0  0
    1.5261   -1.4260    1.9049 H   0  0  0  0  0  0  0  0  0  0  0  0
    0.8052   -2.5170    3.1400 H   0  0  0  0  0  0  0  0  0  0  0  0
   -0.1193   -0.6998    4.3971 H   0  0  0  0  0  0  0  0  0  0  0  0
    0.3243    0.5307    3.1638 H   0  0  0  0  0  0  0  0  0  0  0  0
    2.4450   -1.0422    4.8022 H   0  0  0  0  0  0  0  0  0  0  0  0
    1.6992    0.5321    5.2137 H   0  0  0  0  0  0  0  0  0  0  0  0
    2.6767    2.6015    4.2688 H   0  0  0  0  0  0  0  0  0  0  0  0
    4.4025    3.2283    2.3392 H   0  0  0  0  0  0  0  0  0  0  0  0
    3.6828   -0.9008    2.1675 H   0  0  0  0  0  0  0  0  0  0  0  0
   -0.1320   -4.3609   -2.2361 H   0  0  0  0  0  0  0  0  0  0  0  0
   -1.0656   -3.0991   -3.1215 H   0  0  0  0  0  0  0  0  0  0  0  0
    0.7246   -3.1713   -3.2784 H   0  0  0  0  0  0  0  0  0  0  0  0
    3.1834   -2.1342   -0.3302 H   0  0  0  0  0  0  0  0  0  0  0  0
    2.5228   -1.5036   -1.8663 H   0  0  0  0  0  0  0  0  0  0  0  0
    1.9943   -0.8141   -0.2470 H   0  0  0  0  0  0  0  0  0  0  0  0
  1 28  1  0  0  0  0
  1 29  1  0  0  0  0
  1 30  1  0  0  0  0
  2  1  1  0  0  0  0
  2 31  1  0  0  0  0
  2 32  1  0  0  0  0
  3  2  1  0  0  0  0
  3 33  1  0  0  0  0
  3 34  1  0  0  0  0
  4  3  1  0  0  0  0
  4 35  1  0  0  0  0
  4 36  1  0  0  0  0
  5  4  1  0  0  0  0
  6  5  1  0  0  0  0
  6 37  1  0  0  0  0
  6 38  1  0  0  0  0
  7  6  1  0  0  0  0
  7 39  1  0  0  0  0
  7 40  1  0  0  0  0
  8  7  1  0  0  0  0
  8 41  1  0  0  0  0
  8 42  1  0  0  0  0
  9  8  1  0  0  0  0
  9 43  1  0  0  0  0
  9 44  1  0  0  0  0
  9 45  1  0  0  0  0
 10  5  1  0  0  0  0
 10 46  1  0  0  0  0
 10 47  1  0  0  0  0
 11 10  1  0  0  0  0
 11 48  1  6  0  0  0
 12 11  1  0  0  0  0
 12 49  1  0  0  0  0
 12 50  1  0  0  0  0
 13 12  1  0  0  0  0
 13 51  1  0  0  0  0
 14 13  1  0  0  0  0
 14 52  1  0  0  0  0
 14 53  1  0  0  0  0
 15 14  1  0  0  0  0
 15 54  1  0  0  0  0
 15 55  1  0  0  0  0
 16 15  1  0  0  0  0
 16 56  1  0  0  0  0
 16 57  1  0  0  0  0
 17 16  1  0  0  0  0
 18 17  1  0  0  0  0
 18 58  1  0  0  0  0
 19 18  2  0  0  0  0
 19 59  1  0  0  0  0
 20 19  1  0  0  0  0
 21 20  2  0  0  0  0
 21 17  1  0  0  0  0
 21 60  1  0  0  0  0
 22 11  1  0  0  0  0
 22 23  1  6  0  0  0
 23 61  1  0  0  0  0
 23 62  1  0  0  0  0
 23 63  1  0  0  0  0
 24 22  1  0  0  0  0
 25 24  1  0  0  0  0
 25 64  1  0  0  0  0
 25 65  1  0  0  0  0
 25 66  1  0  0  0  0
 26 22  1  0  0  0  0
 27 26  1  0  0  0  0
 27  5  1  0  0  0  0
M  END
>  <MOL Chiral Flag>
0

>  <energy>
64.24970586789847

$$$$
