>160.sdf
 OpenBabel10052220113D

 61 62  0  0  0  0  0  0  0  0999 V2000
   -0.2718    4.9852   -0.1135 C   0  0  0  0  0  0  0  0  0  0  0  0
   -0.1675    3.8359   -0.8716 O   0  0  0  0  0  0  0  0  0  0  0  0
    0.4821    2.6974   -0.4979 C   0  0  0  0  0  0  0  0  0  0  0  0
    0.5330    1.6134   -1.3886 C   0  0  0  0  0  0  0  0  0  0  0  0
   -0.0242    1.7506   -2.7926 C   0  0  0  0  0  0  0  0  0  0  0  0
   -1.4724    2.1721   -2.8917 C   0  0  0  0  0  0  0  0  0  0  0  0
   -2.0476    2.5071   -4.0771 C   0  0  0  0  0  0  0  0  0  0  0  0
   -1.3012    2.4661   -5.3952 C   0  0  0  0  0  0  0  0  0  0  0  0
   -3.4796    2.9711   -4.1196 C   0  0  0  0  0  0  0  0  0  0  0  0
    1.2022    0.4335   -1.0110 C   0  0  0  0  0  0  0  0  0  0  0  0
    1.8865    0.3208    0.2239 C   0  0  0  0  0  0  0  0  0  0  0  0
    2.6535   -1.0085    0.4436 C   0  0  1  0  0  0  0  0  0  0  0  0
    3.6267   -1.1865    1.6017 C   0  0  0  0  0  0  0  0  0  0  0  0
    3.2748   -1.3466    2.8873 C   0  0  0  0  0  0  0  0  0  0  0  0
    1.7480   -2.2432    0.4092 C   0  0  0  0  0  0  0  0  0  0  0  0
    0.6656   -2.3560    1.3081 C   0  0  0  0  0  0  0  0  0  0  0  0
   -0.1134   -3.5339    1.3641 C   0  0  0  0  0  0  0  0  0  0  0  0
   -1.2608   -3.7573    2.3408 C   0  0  0  0  0  0  0  0  0  0  0  0
   -1.6900   -2.6140    3.2426 C   0  0  0  0  0  0  0  0  0  0  0  0
   -2.6658   -2.7568    4.1685 C   0  0  0  0  0  0  0  0  0  0  0  0
   -3.0545   -1.5660    5.0064 C   0  0  0  0  0  0  0  0  0  0  0  0
   -3.3690   -4.0783    4.3817 C   0  0  0  0  0  0  0  0  0  0  0  0
    0.1972   -4.5872    0.4916 C   0  0  0  0  0  0  0  0  0  0  0  0
    1.2447   -4.4762   -0.4199 C   0  0  0  0  0  0  0  0  0  0  0  0
    2.0259   -3.3153   -0.4680 C   0  0  0  0  0  0  0  0  0  0  0  0
    3.0595   -3.2406   -1.3339 O   0  0  0  0  0  0  0  0  0  0  0  0
    1.8580    1.4583    1.1013 C   0  0  0  0  0  0  0  0  0  0  0  0
    2.5312    1.5457    2.2658 O   0  0  0  0  0  0  0  0  0  0  0  0
    1.1310    2.5964    0.7400 C   0  0  0  0  0  0  0  0  0  0  0  0
    0.7365    5.4102    0.0791 H   0  0  0  0  0  0  0  0  0  0  0  0
   -0.8687    5.7348   -0.6718 H   0  0  0  0  0  0  0  0  0  0  0  0
   -0.7880    4.7709    0.8470 H   0  0  0  0  0  0  0  0  0  0  0  0
    0.1210    0.8137   -3.3726 H   0  0  0  0  0  0  0  0  0  0  0  0
    0.5849    2.5526   -3.2622 H   0  0  0  0  0  0  0  0  0  0  0  0
   -2.0570    2.2435   -1.9781 H   0  0  0  0  0  0  0  0  0  0  0  0
   -1.2800    3.4856   -5.8352 H   0  0  0  0  0  0  0  0  0  0  0  0
   -1.8283    1.7872   -6.0968 H   0  0  0  0  0  0  0  0  0  0  0  0
   -0.2542    2.1149   -5.3222 H   0  0  0  0  0  0  0  0  0  0  0  0
   -4.0677    2.3024   -4.7825 H   0  0  0  0  0  0  0  0  0  0  0  0
   -3.5172    4.0021   -4.5332 H   0  0  0  0  0  0  0  0  0  0  0  0
   -3.9540    2.9823   -3.1160 H   0  0  0  0  0  0  0  0  0  0  0  0
    1.2442   -0.3912   -1.7135 H   0  0  0  0  0  0  0  0  0  0  0  0
    3.3384   -1.0427   -0.4314 H   0  0  0  0  0  0  0  0  0  0  0  0
    4.6866   -1.2330    1.3633 H   0  0  0  0  0  0  0  0  0  0  0  0
    4.0457   -1.4894    3.6373 H   0  0  0  0  0  0  0  0  0  0  0  0
    2.2457   -1.3227    3.2106 H   0  0  0  0  0  0  0  0  0  0  0  0
    0.4675   -1.5303    1.9642 H   0  0  0  0  0  0  0  0  0  0  0  0
   -0.9634   -4.6152    2.9827 H   0  0  0  0  0  0  0  0  0  0  0  0
   -2.1532   -4.0523    1.7481 H   0  0  0  0  0  0  0  0  0  0  0  0
   -1.2284   -1.6420    3.1548 H   0  0  0  0  0  0  0  0  0  0  0  0
   -3.4175   -0.7494    4.3467 H   0  0  0  0  0  0  0  0  0  0  0  0
   -3.8629   -1.8137    5.7255 H   0  0  0  0  0  0  0  0  0  0  0  0
   -2.1755   -1.2056    5.5812 H   0  0  0  0  0  0  0  0  0  0  0  0
   -4.1387   -4.0077    5.1782 H   0  0  0  0  0  0  0  0  0  0  0  0
   -3.8733   -4.4011    3.4475 H   0  0  0  0  0  0  0  0  0  0  0  0
   -2.6353   -4.8521    4.6916 H   0  0  0  0  0  0  0  0  0  0  0  0
   -0.3793   -5.5045    0.5212 H   0  0  0  0  0  0  0  0  0  0  0  0
    1.4631   -5.3066   -1.0798 H   0  0  0  0  0  0  0  0  0  0  0  0
    3.2784   -3.9692   -1.9327 H   0  0  0  0  0  0  0  0  0  0  0  0
    3.2953    1.0273    2.5076 H   0  0  0  0  0  0  0  0  0  0  0  0
    1.1258    3.4339    1.4252 H   0  0  0  0  0  0  0  0  0  0  0  0
  1 30  1  0  0  0  0
  1 31  1  0  0  0  0
  1 32  1  0  0  0  0
  2  1  1  0  0  0  0
  3  2  1  0  0  0  0
  4  3  2  0  0  0  0
  5  4  1  0  0  0  0
  5 33  1  0  0  0  0
  5 34  1  0  0  0  0
  6  5  1  0  0  0  0
  6 35  1  0  0  0  0
  7  6  2  0  0  0  0
  8  7  1  0  0  0  0
  8 36  1  0  0  0  0
  8 37  1  0  0  0  0
  8 38  1  0  0  0  0
  9  7  1  0  0  0  0
  9 39  1  0  0  0  0
  9 40  1  0  0  0  0
  9 41  1  0  0  0  0
 10  4  1  0  0  0  0
 10 42  1  0  0  0  0
 11 10  2  0  0  0  0
 12 11  1  0  0  0  0
 12 43  1  6  0  0  0
 13 12  1  0  0  0  0
 13 44  1  0  0  0  0
 14 13  2  0  0  0  0
 14 45  1  0  0  0  0
 14 46  1  0  0  0  0
 15 12  1  0  0  0  0
 16 15  2  0  0  0  0
 16 47  1  0  0  0  0
 17 16  1  0  0  0  0
 18 17  1  0  0  0  0
 18 48  1  0  0  0  0
 18 49  1  0  0  0  0
 19 18  1  0  0  0  0
 19 50  1  0  0  0  0
 20 19  2  0  0  0  0
 21 20  1  0  0  0  0
 21 51  1  0  0  0  0
 21 52  1  0  0  0  0
 21 53  1  0  0  0  0
 22 20  1  0  0  0  0
 22 54  1  0  0  0  0
 22 55  1  0  0  0  0
 22 56  1  0  0  0  0
 23 17  2  0  0  0  0
 23 57  1  0  0  0  0
 24 23  1  0  0  0  0
 24 58  1  0  0  0  0
 25 24  2  0  0  0  0
 25 15  1  0  0  0  0
 26 25  1  0  0  0  0
 26 59  1  0  0  0  0
 27 11  1  0  0  0  0
 28 27  1  0  0  0  0
 28 60  1  0  0  0  0
 29 27  2  0  0  0  0
 29  3  1  0  0  0  0
 29 61  1  0  0  0  0
M  END
>  <MOL Chiral Flag>
0

>  <energy>
96.667151632766306

$$$$
