>164.sdf
 OpenBabel10052220123D

 55 57  0  0  0  0  0  0  0  0999 V2000
    4.7376    1.8679    1.5936 O   0  0  0  0  0  0  0  0  0  0  0  0
    3.9143    2.2121    0.5090 C   0  0  2  0  0  0  0  0  0  0  0  0
    2.5141    2.6126    1.0567 C   0  0  0  0  0  0  0  0  0  0  0  0
    1.5565    3.3244    0.0634 C   0  0  0  0  0  0  0  0  0  0  0  0
    0.8944    2.4311   -0.9091 N   0  3  0  0  0  0  0  0  0  0  0  0
   -0.4626    1.9620   -0.5210 C   0  0  0  0  0  0  0  0  0  0  0  0
   -0.9505    0.9039   -1.5459 C   0  0  0  0  0  0  0  0  0  0  0  0
   -2.3666    0.4174   -1.2051 C   0  0  0  0  0  0  0  0  0  0  0  0
   -2.4058   -0.0319    0.1747 N   0  0  0  0  0  0  0  0  0  0  0  0
   -1.9924    0.9089    1.1978 C   0  0  0  0  0  0  0  0  0  0  0  0
   -0.5510    1.3581    0.9087 C   0  0  0  0  0  0  0  0  0  0  0  0
   -3.0918   -1.2292    0.5381 C   0  0  0  0  0  0  0  0  0  0  0  0
   -2.4650   -2.5021    0.5062 C   0  0  0  0  0  0  0  0  0  0  0  0
   -3.2044   -3.6376    0.9007 C   0  0  0  0  0  0  0  0  0  0  0  0
   -4.5454   -3.5258    1.3149 C   0  0  0  0  0  0  0  0  0  0  0  0
   -5.1460   -2.2575    1.3369 C   0  0  0  0  0  0  0  0  0  0  0  0
   -4.4250   -1.1267    0.9588 C   0  0  0  0  0  0  0  0  0  0  0  0
   -5.2830   -4.6863    1.7110 N   0  0  0  0  0  0  0  0  0  0  0  0
   -6.4227   -4.5873    2.0581 O   0  0  0  0  0  0  0  0  0  0  0  0
   -4.7678   -5.7627    1.7024 O   0  0  0  0  0  0  0  0  0  0  0  0
   -1.0208   -2.6598    0.0802 C   0  0  0  0  0  0  0  0  0  0  0  0
   -0.5944   -3.9741    0.1678 F   0  0  0  0  0  0  0  0  0  0  0  0
   -0.2089   -1.8994    0.8974 F   0  0  0  0  0  0  0  0  0  0  0  0
   -0.8729   -2.2566   -1.2305 F   0  0  0  0  0  0  0  0  0  0  0  0
    4.0113    1.0772   -0.4972 C   0  0  0  0  0  0  0  0  0  0  0  0
    5.0324    1.1135   -1.4678 C   0  0  0  0  0  0  0  0  0  0  0  0
    5.1841    0.0660   -2.3808 C   0  0  0  0  0  0  0  0  0  0  0  0
    4.3181   -1.0279   -2.3412 C   0  0  0  0  0  0  0  0  0  0  0  0
    4.4632   -2.0392   -3.2330 F   0  0  0  0  0  0  0  0  0  0  0  0
    3.3097   -1.0850   -1.3755 C   0  0  0  0  0  0  0  0  0  0  0  0
    3.1653   -0.0488   -0.4453 C   0  0  0  0  0  0  0  0  0  0  0  0
    5.1135    2.7130    1.9577 H   0  0  0  0  0  0  0  0  0  0  0  0
    4.3393    3.1213    0.0166 H   0  0  0  0  0  0  0  0  0  0  0  0
    2.7281    3.3806    1.8325 H   0  0  0  0  0  0  0  0  0  0  0  0
    2.0345    1.7695    1.5888 H   0  0  0  0  0  0  0  0  0  0  0  0
    2.1536    4.0978   -0.4688 H   0  0  0  0  0  0  0  0  0  0  0  0
    0.7810    3.8868    0.6305 H   0  0  0  0  0  0  0  0  0  0  0  0
    1.5121    1.6412   -1.1706 H   0  0  0  0  0  0  0  0  0  0  0  0
    0.7608    2.9849   -1.7882 H   0  0  0  0  0  0  0  0  0  0  0  0
   -1.1569    2.8345   -0.5523 H   0  0  0  0  0  0  0  0  0  0  0  0
   -0.2486    0.0455   -1.5269 H   0  0  0  0  0  0  0  0  0  0  0  0
   -0.9472    1.3287   -2.5727 H   0  0  0  0  0  0  0  0  0  0  0  0
   -2.6993   -0.3793   -1.9056 H   0  0  0  0  0  0  0  0  0  0  0  0
   -3.0599    1.2803   -1.3153 H   0  0  0  0  0  0  0  0  0  0  0  0
   -2.0689    0.4608    2.2132 H   0  0  0  0  0  0  0  0  0  0  0  0
   -2.6583    1.7996    1.1634 H   0  0  0  0  0  0  0  0  0  0  0  0
    0.1327    0.4918    0.9922 H   0  0  0  0  0  0  0  0  0  0  0  0
   -0.2740    2.1061    1.6795 H   0  0  0  0  0  0  0  0  0  0  0  0
   -2.7393   -4.6141    0.8885 H   0  0  0  0  0  0  0  0  0  0  0  0
   -6.1758   -2.1412    1.6508 H   0  0  0  0  0  0  0  0  0  0  0  0
   -4.9078   -0.1575    0.9864 H   0  0  0  0  0  0  0  0  0  0  0  0
    5.7206    1.9491   -1.5079 H   0  0  0  0  0  0  0  0  0  0  0  0
    5.9770    0.1026   -3.1177 H   0  0  0  0  0  0  0  0  0  0  0  0
    2.6420   -1.9363   -1.3432 H   0  0  0  0  0  0  0  0  0  0  0  0
    2.3868   -0.1209    0.2994 H   0  0  0  0  0  0  0  0  0  0  0  0
  1 32  1  0  0  0  0
  2  1  1  0  0  0  0
  2 33  1  6  0  0  0
  3  2  1  0  0  0  0
  3 34  1  0  0  0  0
  3 35  1  0  0  0  0
  4  3  1  0  0  0  0
  4 36  1  0  0  0  0
  4 37  1  0  0  0  0
  5  4  1  0  0  0  0
  5 38  1  0  0  0  0
  5 39  1  0  0  0  0
  6  5  1  0  0  0  0
  6 40  1  0  0  0  0
  7  6  1  0  0  0  0
  7 41  1  0  0  0  0
  7 42  1  0  0  0  0
  8  7  1  0  0  0  0
  8 43  1  0  0  0  0
  8 44  1  0  0  0  0
  9  8  1  0  0  0  0
 10  9  1  0  0  0  0
 10 45  1  0  0  0  0
 10 46  1  0  0  0  0
 11 10  1  0  0  0  0
 11  6  1  0  0  0  0
 11 47  1  0  0  0  0
 11 48  1  0  0  0  0
 12  9  1  0  0  0  0
 13 12  2  0  0  0  0
 14 13  1  0  0  0  0
 14 49  1  0  0  0  0
 15 14  2  0  0  0  0
 16 15  1  0  0  0  0
 16 50  1  0  0  0  0
 17 16  2  0  0  0  0
 17 12  1  0  0  0  0
 17 51  1  0  0  0  0
 18 15  1  0  0  0  0
 19 18  2  0  0  0  0
 20 18  2  0  0  0  0
 21 13  1  0  0  0  0
 22 21  1  0  0  0  0
 23 21  1  0  0  0  0
 24 21  1  0  0  0  0
 25  2  1  0  0  0  0
 26 25  2  0  0  0  0
 26 52  1  0  0  0  0
 27 26  1  0  0  0  0
 27 53  1  0  0  0  0
 28 27  2  0  0  0  0
 29 28  1  0  0  0  0
 30 28  1  0  0  0  0
 30 54  1  0  0  0  0
 31 30  2  0  0  0  0
 31 25  1  0  0  0  0
 31 55  1  0  0  0  0
M  CHG  1   5   1
M  END
>  <MOL Chiral Flag>
0

>  <energy>
99.641064695479713

$$$$
