>168.sdf
 OpenBabel10052220153D

 22 23  0  0  0  0  0  0  0  0999 V2000
   -3.3589   -0.8757   -0.1324 C   0  0  0  0  0  0  0  0  0  0  0  0
   -2.3576    0.1619    0.3685 C   0  0  0  0  0  0  0  0  0  0  0  0
   -1.2038    0.3668   -0.6238 C   0  0  1  0  0  0  0  0  0  0  0  0
   -0.1749    1.4545   -0.1027 C   0  0  0  0  0  0  0  0  0  0  0  0
    1.0209    0.6568   -0.0113 N   0  0  0  0  0  0  0  0  0  0  0  0
    2.3122    0.7290    0.3266 C   0  0  0  0  0  0  0  0  0  0  0  0
    2.8367   -0.5453    0.1295 C   0  0  0  0  0  0  0  0  0  0  0  0
    1.8623   -1.3765   -0.3271 N   0  0  0  0  0  0  0  0  0  0  0  0
    0.7881   -0.5668   -0.3848 C   0  0  0  0  0  0  0  0  0  0  0  0
   -0.4593   -0.8114   -0.7569 O   0  0  0  0  0  0  0  0  0  0  0  0
    4.1768   -0.9445    0.3629 N   0  0  0  0  0  0  0  0  0  0  0  0
    4.9764   -0.1573    0.7707 O   0  0  0  0  0  0  0  0  0  0  0  0
    4.5096   -2.0717    0.1558 O   0  0  0  0  0  0  0  0  0  0  0  0
   -2.8670   -1.8622   -0.2661 H   0  0  0  0  0  0  0  0  0  0  0  0
   -3.7962   -0.5505   -1.1004 H   0  0  0  0  0  0  0  0  0  0  0  0
   -4.1791   -0.9863    0.6080 H   0  0  0  0  0  0  0  0  0  0  0  0
   -2.8913    1.1265    0.5105 H   0  0  0  0  0  0  0  0  0  0  0  0
   -1.9519   -0.1667    1.3507 H   0  0  0  0  0  0  0  0  0  0  0  0
   -1.6004    0.6728   -1.6171 H   0  0  0  0  0  0  0  0  0  0  0  0
   -0.0257    2.2707   -0.8417 H   0  0  0  0  0  0  0  0  0  0  0  0
   -0.4356    1.8591    0.8991 H   0  0  0  0  0  0  0  0  0  0  0  0
    2.8187    1.6167    0.6818 H   0  0  0  0  0  0  0  0  0  0  0  0
  1 14  1  0  0  0  0
  1 15  1  0  0  0  0
  1 16  1  0  0  0  0
  2  1  1  0  0  0  0
  2 17  1  0  0  0  0
  2 18  1  0  0  0  0
  3  2  1  0  0  0  0
  3 19  1  6  0  0  0
  4  3  1  0  0  0  0
  4 20  1  0  0  0  0
  4 21  1  0  0  0  0
  5  4  1  0  0  0  0
  6  5  1  0  0  0  0
  6 22  1  0  0  0  0
  7  6  2  0  0  0  0
  8  7  1  0  0  0  0
  9  8  2  0  0  0  0
  9  5  1  0  0  0  0
 10  9  1  0  0  0  0
 10  3  1  0  0  0  0
 11  7  1  0  0  0  0
 12 11  2  0  0  0  0
 13 11  2  0  0  0  0
M  END
>  <MOL Chiral Flag>
0

>  <energy>
75.601864387494729

$$$$
