>17.sdf
 OpenBabel10052217583D

 16 16  0  0  0  0  0  0  0  0999 V2000
   -2.4971   -0.3755    0.0600 C   0  0  0  0  0  0  0  0  0  0  0  0
   -1.0519   -0.7335   -0.0193 C   0  0  0  0  0  0  0  0  0  0  0  0
    0.0312    0.0925   -0.2837 C   0  0  0  0  0  0  0  0  0  0  0  0
    0.0622    1.9880   -0.7315 Se  0  0  0  0  0  0  0  0  0  0  0  0
   -0.1398    2.8104    0.9766 C   0  0  0  0  0  0  0  0  0  0  0  0
   -0.2842    3.3084    2.0132 N   0  0  0  0  0  0  0  0  0  0  0  0
    1.1154   -0.7668   -0.2632 C   0  0  0  0  0  0  0  0  0  0  0  0
    2.5484   -0.4247   -0.4953 C   0  0  0  0  0  0  0  0  0  0  0  0
    0.6834   -2.0158   -0.0049 N   0  0  0  0  0  0  0  0  0  0  0  0
   -0.6081   -1.9608    0.1405 O   0  0  0  0  0  0  0  0  0  0  0  0
   -2.6532    0.4054    0.8310 H   0  0  0  0  0  0  0  0  0  0  0  0
   -3.0788   -1.2793    0.3475 H   0  0  0  0  0  0  0  0  0  0  0  0
   -2.8609   -0.0209   -0.9257 H   0  0  0  0  0  0  0  0  0  0  0  0
    3.1658   -1.3491   -0.4789 H   0  0  0  0  0  0  0  0  0  0  0  0
    2.8960    0.2503    0.3131 H   0  0  0  0  0  0  0  0  0  0  0  0
    2.6715    0.0714   -1.4796 H   0  0  0  0  0  0  0  0  0  0  0  0
  1 11  1  0  0  0  0
  1 12  1  0  0  0  0
  1 13  1  0  0  0  0
  2  1  1  0  0  0  0
  3  2  2  0  0  0  0
  4  3  1  0  0  0  0
  5  4  1  0  0  0  0
  6  5  3  0  0  0  0
  7  3  1  0  0  0  0
  8  7  1  0  0  0  0
  8 14  1  0  0  0  0
  8 15  1  0  0  0  0
  8 16  1  0  0  0  0
  9  7  2  0  0  0  0
 10  9  1  0  0  0  0
 10  2  1  0  0  0  0
M  END
>  <MOL Chiral Flag>
0

>  <energy>
4.0861058062428395

$$$$
