>18.sdf
 OpenBabel10052217583D

 24 25  0  0  0  0  0  0  0  0999 V2000
    0.3765    2.8853   -0.3166 Br  0  0  0  0  0  0  0  0  0  0  0  0
    1.9952    1.9115   -0.0293 C   0  0  0  0  0  0  0  0  0  0  0  0
    2.2676    0.5750   -0.3478 C   0  0  0  0  0  0  0  0  0  0  0  0
    1.2809   -0.3559   -0.9904 C   0  0  0  0  0  0  0  0  0  0  0  0
    0.9816   -1.9125    0.1496 Se  0  0  0  0  0  0  0  0  0  0  0  0
   -0.0344   -0.5980    1.8670 Se  0  0  0  0  0  0  0  0  0  0  0  0
   -1.7890   -1.3712    1.5177 C   0  0  0  0  0  0  0  0  0  0  0  0
   -2.4313   -0.7581    0.3100 C   0  0  0  0  0  0  0  0  0  0  0  0
   -2.7864   -1.4780   -0.8386 C   0  0  0  0  0  0  0  0  0  0  0  0
   -2.5526   -3.3435   -1.1804 Br  0  0  0  0  0  0  0  0  0  0  0  0
   -3.4687   -0.3978   -1.8912 S   0  0  0  0  0  0  0  0  0  0  0  0
   -3.3585    0.9861   -0.9838 C   0  0  0  0  0  0  0  0  0  0  0  0
   -2.7547    0.6277    0.2248 C   0  0  0  0  0  0  0  0  0  0  0  0
    3.5882    0.1713    0.0093 C   0  0  0  0  0  0  0  0  0  0  0  0
    4.3386    1.1861    0.6095 C   0  0  0  0  0  0  0  0  0  0  0  0
    3.3640    2.5267    0.6720 S   0  0  0  0  0  0  0  0  0  0  0  0
    1.6969   -0.7070   -1.9579 H   0  0  0  0  0  0  0  0  0  0  0  0
    0.3086    0.1322   -1.2091 H   0  0  0  0  0  0  0  0  0  0  0  0
   -2.4319   -1.2020    2.4063 H   0  0  0  0  0  0  0  0  0  0  0  0
   -1.6720   -2.4698    1.4223 H   0  0  0  0  0  0  0  0  0  0  0  0
   -3.6915    1.9749   -1.2677 H   0  0  0  0  0  0  0  0  0  0  0  0
   -2.5580    1.3367    1.0183 H   0  0  0  0  0  0  0  0  0  0  0  0
    3.9741   -0.8253   -0.1596 H   0  0  0  0  0  0  0  0  0  0  0  0
    5.3568    1.1059    0.9656 H   0  0  0  0  0  0  0  0  0  0  0  0
  2  1  1  0  0  0  0
  3  2  2  0  0  0  0
  4  3  1  0  0  0  0
  4 17  1  0  0  0  0
  4 18  1  0  0  0  0
  5  4  1  0  0  0  0
  6  5  1  0  0  0  0
  7  6  1  0  0  0  0
  7 19  1  0  0  0  0
  7 20  1  0  0  0  0
  8  7  1  0  0  0  0
  9  8  2  0  0  0  0
 10  9  1  0  0  0  0
 11  9  1  0  0  0  0
 12 11  1  0  0  0  0
 12 21  1  0  0  0  0
 13 12  2  0  0  0  0
 13  8  1  0  0  0  0
 13 22  1  0  0  0  0
 14  3  1  0  0  0  0
 14 23  1  0  0  0  0
 15 14  2  0  0  0  0
 15 24  1  0  0  0  0
 16 15  1  0  0  0  0
 16  2  1  0  0  0  0
M  END
>  <MOL Chiral Flag>
0

>  <energy>
-5.1485602688055856

$$$$
