>181.sdf
 OpenBabel10052220223D

 50 54  0  0  0  0  0  0  0  0999 V2000
    3.5699   -3.0955    1.6712 C   0  0  0  0  0  0  0  0  0  0  0  0
    2.9240   -2.4123    0.6621 O   0  0  0  0  0  0  0  0  0  0  0  0
    1.6824   -2.7114    0.1956 C   0  0  0  0  0  0  0  0  0  0  0  0
    1.2070   -4.0289    0.1383 C   0  0  0  0  0  0  0  0  0  0  0  0
   -0.0822   -4.2844   -0.3189 C   0  0  0  0  0  0  0  0  0  0  0  0
   -0.9208   -3.2396   -0.7212 C   0  0  0  0  0  0  0  0  0  0  0  0
   -0.4686   -1.8984   -0.7027 C   0  0  0  0  0  0  0  0  0  0  0  0
   -1.2312   -0.7450   -1.1131 C   0  0  0  0  0  0  0  0  0  0  0  0
   -2.5729   -0.7119   -1.6367 N   0  0  0  0  0  0  0  0  0  0  0  0
   -3.5244   -1.7791   -1.8738 C   0  0  0  0  0  0  0  0  0  0  0  0
   -4.4393   -2.0471   -0.6921 C   0  0  0  0  0  0  0  0  0  0  0  0
   -5.4901   -2.9671   -0.8523 C   0  0  0  0  0  0  0  0  0  0  0  0
   -6.4008   -3.1954    0.1844 C   0  0  0  0  0  0  0  0  0  0  0  0
   -6.2752   -2.5066    1.3920 C   0  0  0  0  0  0  0  0  0  0  0  0
   -5.2345   -1.5918    1.5686 C   0  0  0  0  0  0  0  0  0  0  0  0
   -4.3167   -1.3598    0.5358 C   0  0  0  0  0  0  0  0  0  0  0  0
   -0.6302    0.4682   -1.0175 N   0  0  0  0  0  0  0  0  0  0  0  0
    0.6205    0.6675   -0.5560 C   0  0  0  0  0  0  0  0  0  0  0  0
    1.1425    2.0125   -0.4362 N   0  0  0  0  0  0  0  0  0  0  0  0
    0.6498    3.1571   -1.0048 C   0  0  0  0  0  0  0  0  0  0  0  0
   -0.4462    3.2301   -1.9027 N   0  0  0  0  0  0  0  0  0  0  0  0
    1.3528    4.2592   -0.6501 N   0  0  0  0  0  0  0  0  0  0  0  0
    2.3134    3.7924    0.1611 C   0  0  0  0  0  0  0  0  0  0  0  0
    3.2935    4.5312    0.8125 C   0  0  0  0  0  0  0  0  0  0  0  0
    4.1995    3.8406    1.6341 C   0  0  0  0  0  0  0  0  0  0  0  0
    4.1010    2.4380    1.7801 C   0  0  0  0  0  0  0  0  0  0  0  0
    3.0931    1.7177    1.1069 C   0  0  0  0  0  0  0  0  0  0  0  0
    2.2032    2.4349    0.2925 C   0  0  0  0  0  0  0  0  0  0  0  0
    1.3492   -0.3960   -0.1623 N   0  0  0  0  0  0  0  0  0  0  0  0
    0.8604   -1.6599   -0.2323 C   0  0  0  0  0  0  0  0  0  0  0  0
    3.6998   -4.1696    1.4348 H   0  0  0  0  0  0  0  0  0  0  0  0
    2.9917   -2.9772    2.6133 H   0  0  0  0  0  0  0  0  0  0  0  0
    4.5726   -2.6461    1.8241 H   0  0  0  0  0  0  0  0  0  0  0  0
    1.8273   -4.8610    0.4417 H   0  0  0  0  0  0  0  0  0  0  0  0
   -0.4407   -5.3058   -0.3560 H   0  0  0  0  0  0  0  0  0  0  0  0
   -1.8967   -3.5242   -1.0253 H   0  0  0  0  0  0  0  0  0  0  0  0
   -2.9052    0.2246   -1.9173 H   0  0  0  0  0  0  0  0  0  0  0  0
   -4.2212   -1.4043   -2.6557 H   0  0  0  0  0  0  0  0  0  0  0  0
   -3.0771   -2.6450   -2.3877 H   0  0  0  0  0  0  0  0  0  0  0  0
   -5.6112   -3.4957   -1.7894 H   0  0  0  0  0  0  0  0  0  0  0  0
   -7.2116   -3.8994    0.0467 H   0  0  0  0  0  0  0  0  0  0  0  0
   -6.9885   -2.6777    2.1890 H   0  0  0  0  0  0  0  0  0  0  0  0
   -5.1461   -1.0533    2.5040 H   0  0  0  0  0  0  0  0  0  0  0  0
   -3.5324   -0.6323    0.6941 H   0  0  0  0  0  0  0  0  0  0  0  0
   -0.7320    4.1462   -2.2750 H   0  0  0  0  0  0  0  0  0  0  0  0
   -0.9282    2.3992   -2.2603 H   0  0  0  0  0  0  0  0  0  0  0  0
    3.3522    5.6057    0.6953 H   0  0  0  0  0  0  0  0  0  0  0  0
    4.9723    4.3865    2.1595 H   0  0  0  0  0  0  0  0  0  0  0  0
    4.8021    1.9158    2.4182 H   0  0  0  0  0  0  0  0  0  0  0  0
    3.0284    0.6495    1.2384 H   0  0  0  0  0  0  0  0  0  0  0  0
  1 31  1  0  0  0  0
  1 32  1  0  0  0  0
  1 33  1  0  0  0  0
  2  1  1  0  0  0  0
  3  2  1  0  0  0  0
  4  3  2  0  0  0  0
  4 34  1  0  0  0  0
  5  4  1  0  0  0  0
  5 35  1  0  0  0  0
  6  5  2  0  0  0  0
  6 36  1  0  0  0  0
  7  6  1  0  0  0  0
  8  7  2  0  0  0  0
  9  8  1  0  0  0  0
  9 37  1  0  0  0  0
 10  9  1  0  0  0  0
 10 38  1  0  0  0  0
 10 39  1  0  0  0  0
 11 10  1  0  0  0  0
 12 11  2  0  0  0  0
 12 40  1  0  0  0  0
 13 12  1  0  0  0  0
 13 41  1  0  0  0  0
 14 13  2  0  0  0  0
 14 42  1  0  0  0  0
 15 14  1  0  0  0  0
 15 43  1  0  0  0  0
 16 15  2  0  0  0  0
 16 11  1  0  0  0  0
 16 44  1  0  0  0  0
 17  8  1  0  0  0  0
 18 17  2  0  0  0  0
 19 18  1  0  0  0  0
 20 19  1  0  0  0  0
 21 20  1  0  0  0  0
 21 45  1  0  0  0  0
 21 46  1  0  0  0  0
 22 20  2  0  0  0  0
 23 22  1  0  0  0  0
 24 23  1  0  0  0  0
 24 47  1  0  0  0  0
 25 24  2  0  0  0  0
 25 48  1  0  0  0  0
 26 25  1  0  0  0  0
 26 49  1  0  0  0  0
 27 26  2  0  0  0  0
 27 50  1  0  0  0  0
 28 27  1  0  0  0  0
 28 23  2  0  0  0  0
 28 19  1  0  0  0  0
 29 18  1  0  0  0  0
 30 29  2  0  0  0  0
 30  3  1  0  0  0  0
 30  7  1  0  0  0  0
M  END
>  <MOL Chiral Flag>
0

>  <energy>
61.838377501280121

$$$$
