>182.sdf
 OpenBabel10052220233D

 55 60  0  0  0  0  0  0  0  0999 V2000
    1.7711   -4.1579   -2.0066 O   0  0  0  0  0  0  0  0  0  0  0  0
    0.9685   -3.6200   -1.2582 C   0  0  0  0  0  0  0  0  0  0  0  0
   -0.0341   -4.3569   -0.7166 N   0  0  0  0  0  0  0  0  0  0  0  0
   -1.1680   -3.7508   -0.2231 N   0  0  0  0  0  0  0  0  0  0  0  0
   -1.7608   -4.1701    0.8352 C   0  0  0  0  0  0  0  0  0  0  0  0
   -3.1450   -3.7499    1.1108 C   0  0  0  0  0  0  0  0  0  0  0  0
   -3.8696   -3.9834    2.2826 C   0  0  0  0  0  0  0  0  0  0  0  0
   -5.2416   -3.6120    2.1796 C   0  0  0  0  0  0  0  0  0  0  0  0
   -5.5883   -3.1108    0.9181 C   0  0  0  0  0  0  0  0  0  0  0  0
   -4.2016   -3.0962    0.0044 S   0  0  0  0  0  0  0  0  0  0  0  0
   -6.9468   -2.7769    0.4563 C   0  0  0  0  0  0  0  0  0  0  0  0
   -7.3276   -2.4090   -0.8392 C   0  0  0  0  0  0  0  0  0  0  0  0
   -8.7334   -2.2319   -0.9814 C   0  0  0  0  0  0  0  0  0  0  0  0
   -9.4492   -2.4590    0.1982 C   0  0  0  0  0  0  0  0  0  0  0  0
   -8.3367   -2.8678    1.3587 S   0  0  0  0  0  0  0  0  0  0  0  0
    1.1677   -2.2031   -0.8811 C   0  0  0  0  0  0  0  0  0  0  0  0
    0.9569   -1.8300    0.4118 N   0  0  0  0  0  0  0  0  0  0  0  0
    1.2590   -0.6106    0.8941 N   0  0  0  0  0  0  0  0  0  0  0  0
    1.1259   -0.4228    2.3439 C   0  0  0  0  0  0  0  0  0  0  0  0
    0.9703   -1.5642    3.1707 C   0  0  0  0  0  0  0  0  0  0  0  0
    0.8858   -1.4451    4.5599 C   0  0  0  0  0  0  0  0  0  0  0  0
    0.9441   -0.1913    5.1604 C   0  0  0  0  0  0  0  0  0  0  0  0
    1.0799    0.9499    4.3736 C   0  0  0  0  0  0  0  0  0  0  0  0
    1.1698    0.8468    2.9807 C   0  0  0  0  0  0  0  0  0  0  0  0
    1.7695    0.3585    0.0192 C   0  0  0  0  0  0  0  0  0  0  0  0
    2.1423    1.4367    0.4272 O   0  0  0  0  0  0  0  0  0  0  0  0
    1.9468    0.0157   -1.3349 C   0  0  0  0  0  0  0  0  0  0  0  0
    1.6912   -1.2568   -1.7449 C   0  0  0  0  0  0  0  0  0  0  0  0
    2.0528   -1.3170   -3.0699 C   0  0  0  0  0  0  0  0  0  0  0  0
    2.5029   -0.1010   -3.4410 N   0  0  0  0  0  0  0  0  0  0  0  0
    2.4240    0.7247   -2.3999 N   0  0  0  0  0  0  0  0  0  0  0  0
    2.7832    2.1217   -2.5407 C   0  0  0  0  0  0  0  0  0  0  0  0
    3.7292    2.4918   -3.5175 C   0  0  0  0  0  0  0  0  0  0  0  0
    4.0793    3.8323   -3.7009 C   0  0  0  0  0  0  0  0  0  0  0  0
    3.4800    4.8248   -2.9256 C   0  0  0  0  0  0  0  0  0  0  0  0
    2.5202    4.4799   -1.9742 C   0  0  0  0  0  0  0  0  0  0  0  0
    2.1658    3.1406   -1.7843 C   0  0  0  0  0  0  0  0  0  0  0  0
   -0.0610   -5.3737   -0.8919 H   0  0  0  0  0  0  0  0  0  0  0  0
   -1.2929   -4.9145    1.4723 H   0  0  0  0  0  0  0  0  0  0  0  0
   -3.4429   -4.4322    3.1691 H   0  0  0  0  0  0  0  0  0  0  0  0
   -5.9521   -3.7531    2.9830 H   0  0  0  0  0  0  0  0  0  0  0  0
   -6.6331   -2.2908   -1.6604 H   0  0  0  0  0  0  0  0  0  0  0  0
   -9.2063   -1.9593   -1.9159 H   0  0  0  0  0  0  0  0  0  0  0  0
  -10.5220   -2.3926    0.3221 H   0  0  0  0  0  0  0  0  0  0  0  0
    0.9358   -2.5581    2.7443 H   0  0  0  0  0  0  0  0  0  0  0  0
    0.7818   -2.3317    5.1727 H   0  0  0  0  0  0  0  0  0  0  0  0
    0.8823   -0.1033    6.2376 H   0  0  0  0  0  0  0  0  0  0  0  0
    1.1186    1.9236    4.8452 H   0  0  0  0  0  0  0  0  0  0  0  0
    1.2607    1.7690    2.4396 H   0  0  0  0  0  0  0  0  0  0  0  0
    1.9935   -2.1729   -3.7281 H   0  0  0  0  0  0  0  0  0  0  0  0
    4.2039    1.7372   -4.1315 H   0  0  0  0  0  0  0  0  0  0  0  0
    4.8139    4.1013   -4.4487 H   0  0  0  0  0  0  0  0  0  0  0  0
    3.7483    5.8629   -3.0723 H   0  0  0  0  0  0  0  0  0  0  0  0
    2.0381    5.2533   -1.3901 H   0  0  0  0  0  0  0  0  0  0  0  0
    1.3828    2.9249   -1.0797 H   0  0  0  0  0  0  0  0  0  0  0  0
  2  1  2  0  0  0  0
  3  2  1  0  0  0  0
  3 38  1  0  0  0  0
  4  3  1  0  0  0  0
  5  4  2  0  0  0  0
  5 39  1  0  0  0  0
  6  5  1  0  0  0  0
  7  6  2  0  0  0  0
  7 40  1  0  0  0  0
  8  7  1  0  0  0  0
  8 41  1  0  0  0  0
  9  8  2  0  0  0  0
 10  9  1  0  0  0  0
 10  6  1  0  0  0  0
 11  9  1  0  0  0  0
 12 11  2  0  0  0  0
 12 42  1  0  0  0  0
 13 12  1  0  0  0  0
 13 43  1  0  0  0  0
 14 13  2  0  0  0  0
 14 44  1  0  0  0  0
 15 14  1  0  0  0  0
 15 11  1  0  0  0  0
 16  2  1  0  0  0  0
 17 16  2  0  0  0  0
 18 17  1  0  0  0  0
 19 18  1  0  0  0  0
 20 19  2  0  0  0  0
 20 45  1  0  0  0  0
 21 20  1  0  0  0  0
 21 46  1  0  0  0  0
 22 21  2  0  0  0  0
 22 47  1  0  0  0  0
 23 22  1  0  0  0  0
 23 48  1  0  0  0  0
 24 23  2  0  0  0  0
 24 19  1  0  0  0  0
 24 49  1  0  0  0  0
 25 18  1  0  0  0  0
 26 25  2  0  0  0  0
 27 25  1  0  0  0  0
 28 27  2  0  0  0  0
 28 16  1  0  0  0  0
 29 28  1  0  0  0  0
 29 50  1  0  0  0  0
 30 29  2  0  0  0  0
 31 30  1  0  0  0  0
 31 27  1  0  0  0  0
 32 31  1  0  0  0  0
 33 32  2  0  0  0  0
 33 51  1  0  0  0  0
 34 33  1  0  0  0  0
 34 52  1  0  0  0  0
 35 34  2  0  0  0  0
 35 53  1  0  0  0  0
 36 35  1  0  0  0  0
 36 54  1  0  0  0  0
 37 36  2  0  0  0  0
 37 32  1  0  0  0  0
 37 55  1  0  0  0  0
M  END
>  <MOL Chiral Flag>
0

>  <energy>
218.23050348845052

$$$$
