>184.sdf
 OpenBabel10102213173D

 72 75  0  0  0  0  0  0  0  0999 V2000
    1.8091   -3.1968   -0.9089 O   0  0  0  0  0  0  0  0  0  0  0  0
    1.2302   -2.3868   -1.6167 C   0  0  0  0  0  0  0  0  0  0  0  0
    0.1008   -2.8117   -2.5195 C   0  0  0  0  0  0  0  0  0  0  0  0
   -0.2995   -4.2910   -2.4496 C   0  0  0  0  0  0  0  0  0  0  0  0
   -1.6117   -4.4763   -3.2279 C   0  0  0  0  0  0  0  0  0  0  0  0
   -2.1322   -5.9148   -3.1948 C   0  0  0  0  0  0  0  0  0  0  0  0
   -3.5412   -5.9742   -3.8069 C   0  0  0  0  0  0  0  0  0  0  0  0
   -4.0989   -7.4000   -3.7935 C   0  0  0  0  0  0  0  0  0  0  0  0
   -5.5413   -7.4294   -4.2437 C   0  0  0  0  0  0  0  0  0  0  0  0
   -6.3648   -6.8166   -3.5856 O   0  0  0  0  0  0  0  0  0  0  0  0
   -5.8993   -8.1380   -5.3596 N   0  0  0  0  0  0  0  0  0  0  0  0
   -7.2311   -8.3231   -5.8818 C   0  0  0  0  0  0  0  0  0  0  0  0
   -8.4129   -7.8976   -5.2191 C   0  0  0  0  0  0  0  0  0  0  0  0
   -9.6692   -8.1420   -5.7851 C   0  0  0  0  0  0  0  0  0  0  0  0
   -9.7767   -8.8048   -7.0064 C   0  0  0  0  0  0  0  0  0  0  0  0
   -8.6279   -9.2288   -7.6705 C   0  0  0  0  0  0  0  0  0  0  0  0
   -7.3680   -8.9933   -7.1141 C   0  0  0  0  0  0  0  0  0  0  0  0
    1.5654   -1.0714   -1.5948 N   0  0  0  0  0  0  0  0  0  0  0  0
    2.5169   -0.5625   -0.7678 O   0  0  0  0  0  0  0  0  0  0  0  0
    2.0081    0.5426    0.0248 C   0  0  0  0  0  0  0  0  0  0  0  0
    0.9209    1.3559   -0.7552 C   0  0  0  0  0  0  0  0  0  0  0  0
    1.2735    1.9766   -1.9784 C   0  0  0  0  0  0  0  0  0  0  0  0
    0.3265    2.6791   -2.7260 C   0  0  0  0  0  0  0  0  0  0  0  0
   -0.9896    2.7728   -2.2773 C   0  0  0  0  0  0  0  0  0  0  0  0
   -1.3644    2.1597   -1.0822 C   0  0  0  0  0  0  0  0  0  0  0  0
   -0.4251    1.4527   -0.3256 C   0  0  0  0  0  0  0  0  0  0  0  0
    1.5045    0.0592    1.4050 C   0  0  0  0  0  0  0  0  0  0  0  0
    1.0619    1.0106    2.3560 C   0  0  0  0  0  0  0  0  0  0  0  0
    0.6199    0.6102    3.6189 C   0  0  0  0  0  0  0  0  0  0  0  0
    0.6202   -0.7402    3.9637 C   0  0  0  0  0  0  0  0  0  0  0  0
    1.0689   -1.6919    3.0481 C   0  0  0  0  0  0  0  0  0  0  0  0
    1.5119   -1.2982    1.7809 C   0  0  0  0  0  0  0  0  0  0  0  0
    3.2259    1.4307    0.3721 C   0  0  0  0  0  0  0  0  0  0  0  0
    4.3728    0.8215    0.9270 C   0  0  0  0  0  0  0  0  0  0  0  0
    5.4914    1.5840    1.2761 C   0  0  0  0  0  0  0  0  0  0  0  0
    5.4863    2.9655    1.0862 C   0  0  0  0  0  0  0  0  0  0  0  0
    4.3617    3.5907    0.5518 C   0  0  0  0  0  0  0  0  0  0  0  0
    3.2386    2.8392    0.1990 C   0  0  0  0  0  0  0  0  0  0  0  0
    0.3498   -2.5482   -3.5708 H   0  0  0  0  0  0  0  0  0  0  0  0
   -0.7736   -2.2018   -2.2021 H   0  0  0  0  0  0  0  0  0  0  0  0
   -0.4791   -4.5761   -1.3895 H   0  0  0  0  0  0  0  0  0  0  0  0
    0.5116   -4.9289   -2.8642 H   0  0  0  0  0  0  0  0  0  0  0  0
   -1.4794   -4.1599   -4.2864 H   0  0  0  0  0  0  0  0  0  0  0  0
   -2.3760   -3.8191   -2.7554 H   0  0  0  0  0  0  0  0  0  0  0  0
   -1.4313   -6.5771   -3.7485 H   0  0  0  0  0  0  0  0  0  0  0  0
   -2.1951   -6.2596   -2.1391 H   0  0  0  0  0  0  0  0  0  0  0  0
   -4.2070   -5.3163   -3.2045 H   0  0  0  0  0  0  0  0  0  0  0  0
   -3.5239   -5.5976   -4.8537 H   0  0  0  0  0  0  0  0  0  0  0  0
   -4.0616   -7.8080   -2.7603 H   0  0  0  0  0  0  0  0  0  0  0  0
   -3.4607   -8.0389   -4.4413 H   0  0  0  0  0  0  0  0  0  0  0  0
   -5.1356   -8.5926   -5.8832 H   0  0  0  0  0  0  0  0  0  0  0  0
   -8.4055   -7.3957   -4.2708 H   0  0  0  0  0  0  0  0  0  0  0  0
  -10.5648   -7.8195   -5.2690 H   0  0  0  0  0  0  0  0  0  0  0  0
  -10.7521   -8.9931   -7.4364 H   0  0  0  0  0  0  0  0  0  0  0  0
   -8.7122   -9.7454   -8.6179 H   0  0  0  0  0  0  0  0  0  0  0  0
   -6.4894   -9.3357   -7.6463 H   0  0  0  0  0  0  0  0  0  0  0  0
    1.1084   -0.4752   -2.2963 H   0  0  0  0  0  0  0  0  0  0  0  0
    2.2881    1.9042   -2.3507 H   0  0  0  0  0  0  0  0  0  0  0  0
    0.6139    3.1461   -3.6590 H   0  0  0  0  0  0  0  0  0  0  0  0
   -1.7228    3.3140   -2.8611 H   0  0  0  0  0  0  0  0  0  0  0  0
   -2.3904    2.2244   -0.7434 H   0  0  0  0  0  0  0  0  0  0  0  0
   -0.7682    0.9747    0.5782 H   0  0  0  0  0  0  0  0  0  0  0  0
    1.0582    2.0655    2.1110 H   0  0  0  0  0  0  0  0  0  0  0  0
    0.2794    1.3500    4.3319 H   0  0  0  0  0  0  0  0  0  0  0  0
    0.2800   -1.0489    4.9438 H   0  0  0  0  0  0  0  0  0  0  0  0
    1.0798   -2.7389    3.3225 H   0  0  0  0  0  0  0  0  0  0  0  0
    1.8692   -2.0540    1.1150 H   0  0  0  0  0  0  0  0  0  0  0  0
    4.3975   -0.2491    1.0881 H   0  0  0  0  0  0  0  0  0  0  0  0
    6.3635    1.1021    1.6980 H   0  0  0  0  0  0  0  0  0  0  0  0
    6.3523    3.5542    1.3600 H   0  0  0  0  0  0  0  0  0  0  0  0
    4.3551    4.6647    0.4153 H   0  0  0  0  0  0  0  0  0  0  0  0
    2.3860    3.3743   -0.1876 H   0  0  0  0  0  0  0  0  0  0  0  0
  2  1  2  0  0  0  0
  3  2  1  0  0  0  0
  3 39  1  0  0  0  0
  3 40  1  0  0  0  0
  4  3  1  0  0  0  0
  4 41  1  0  0  0  0
  4 42  1  0  0  0  0
  5  4  1  0  0  0  0
  5 43  1  0  0  0  0
  5 44  1  0  0  0  0
  6  5  1  0  0  0  0
  6 45  1  0  0  0  0
  6 46  1  0  0  0  0
  7  6  1  0  0  0  0
  7 47  1  0  0  0  0
  7 48  1  0  0  0  0
  8  7  1  0  0  0  0
  8 49  1  0  0  0  0
  8 50  1  0  0  0  0
  9  8  1  0  0  0  0
 10  9  2  0  0  0  0
 11  9  1  0  0  0  0
 11 51  1  0  0  0  0
 12 11  1  0  0  0  0
 13 12  2  0  0  0  0
 13 52  1  0  0  0  0
 14 13  1  0  0  0  0
 14 53  1  0  0  0  0
 15 14  2  0  0  0  0
 15 54  1  0  0  0  0
 16 15  1  0  0  0  0
 16 55  1  0  0  0  0
 17 16  2  0  0  0  0
 17 12  1  0  0  0  0
 17 56  1  0  0  0  0
 18  2  1  0  0  0  0
 18 57  1  0  0  0  0
 19 18  1  0  0  0  0
 20 19  1  0  0  0  0
 21 20  1  0  0  0  0
 22 21  2  0  0  0  0
 22 58  1  0  0  0  0
 23 22  1  0  0  0  0
 23 59  1  0  0  0  0
 24 23  2  0  0  0  0
 24 60  1  0  0  0  0
 25 24  1  0  0  0  0
 25 61  1  0  0  0  0
 26 25  2  0  0  0  0
 26 21  1  0  0  0  0
 26 62  1  0  0  0  0
 27 20  1  0  0  0  0
 28 27  2  0  0  0  0
 28 63  1  0  0  0  0
 29 28  1  0  0  0  0
 29 64  1  0  0  0  0
 30 29  2  0  0  0  0
 30 65  1  0  0  0  0
 31 30  1  0  0  0  0
 31 66  1  0  0  0  0
 32 31  2  0  0  0  0
 32 27  1  0  0  0  0
 32 67  1  0  0  0  0
 33 20  1  0  0  0  0
 34 33  2  0  0  0  0
 34 68  1  0  0  0  0
 35 34  1  0  0  0  0
 35 69  1  0  0  0  0
 36 35  2  0  0  0  0
 36 70  1  0  0  0  0
 37 36  1  0  0  0  0
 37 71  1  0  0  0  0
 38 37  2  0  0  0  0
 38 33  1  0  0  0  0
 38 72  1  0  0  0  0
M  END
>  <MOL Chiral Flag>
0

>  <energy>
150.09246228630562

$$$$
