>19.sdf
 OpenBabel10052217593D

 34 37  0  0  0  0  0  0  0  0999 V2000
    2.5182   -1.5889    2.0399 C   0  0  0  0  0  0  0  0  0  0  0  0
    0.5994   -1.3898    2.3651 Se  0  0  0  0  0  0  0  0  0  0  0  0
    0.7393    0.9679    2.8956 Se  0  0  0  0  0  0  0  0  0  0  0  0
   -1.0019    1.6332    2.2373 C   0  0  0  0  0  0  0  0  0  0  0  0
   -1.8696    0.5557    1.7771 N   0  0  0  0  0  0  0  0  0  0  0  0
   -2.2683   -0.4584    2.5425 N   0  0  0  0  0  0  0  0  0  0  0  0
   -3.0188   -1.3026    1.8401 N   0  0  0  0  0  0  0  0  0  0  0  0
   -3.1081   -0.7912    0.5990 C   0  0  0  0  0  0  0  0  0  0  0  0
   -3.7749   -1.2982   -0.5068 C   0  0  0  0  0  0  0  0  0  0  0  0
   -3.7242   -0.5474   -1.6980 C   0  0  0  0  0  0  0  0  0  0  0  0
   -3.0135    0.6785   -1.7413 C   0  0  0  0  0  0  0  0  0  0  0  0
   -2.3359    1.1506   -0.5981 C   0  0  0  0  0  0  0  0  0  0  0  0
   -2.4080    0.3717    0.5601 C   0  0  0  0  0  0  0  0  0  0  0  0
    2.9517   -0.5396    1.1324 N   0  0  0  0  0  0  0  0  0  0  0  0
    3.7127    0.4928    1.4818 N   0  0  0  0  0  0  0  0  0  0  0  0
    3.8417    1.3357    0.4582 N   0  0  0  0  0  0  0  0  0  0  0  0
    3.1440    0.8025   -0.5624 C   0  0  0  0  0  0  0  0  0  0  0  0
    2.9392    1.3006   -1.8417 C   0  0  0  0  0  0  0  0  0  0  0  0
    2.1613    0.5236   -2.7256 C   0  0  0  0  0  0  0  0  0  0  0  0
    1.6205   -0.7179   -2.3030 C   0  0  0  0  0  0  0  0  0  0  0  0
    1.8365   -1.1752   -0.9884 C   0  0  0  0  0  0  0  0  0  0  0  0
    2.6049   -0.3707   -0.1496 C   0  0  0  0  0  0  0  0  0  0  0  0
    2.7372   -2.5848    1.5971 H   0  0  0  0  0  0  0  0  0  0  0  0
    3.0412   -1.5118    3.0158 H   0  0  0  0  0  0  0  0  0  0  0  0
   -0.8230    2.3646    1.4216 H   0  0  0  0  0  0  0  0  0  0  0  0
   -1.5065    2.1508    3.0799 H   0  0  0  0  0  0  0  0  0  0  0  0
   -4.3135   -2.2350   -0.4549 H   0  0  0  0  0  0  0  0  0  0  0  0
   -4.2337   -0.9073   -2.5818 H   0  0  0  0  0  0  0  0  0  0  0  0
   -2.9893    1.2537   -2.6579 H   0  0  0  0  0  0  0  0  0  0  0  0
   -1.7925    2.0849   -0.6282 H   0  0  0  0  0  0  0  0  0  0  0  0
    3.3573    2.2505   -2.1458 H   0  0  0  0  0  0  0  0  0  0  0  0
    1.9785    0.8753   -3.7316 H   0  0  0  0  0  0  0  0  0  0  0  0
    1.0356   -1.3147   -2.9905 H   0  0  0  0  0  0  0  0  0  0  0  0
    1.4282   -2.1193   -0.6506 H   0  0  0  0  0  0  0  0  0  0  0  0
  1 23  1  0  0  0  0
  1 24  1  0  0  0  0
  2  1  1  0  0  0  0
  3  2  1  0  0  0  0
  4  3  1  0  0  0  0
  4 25  1  0  0  0  0
  4 26  1  0  0  0  0
  5  4  1  0  0  0  0
  6  5  1  0  0  0  0
  7  6  2  0  0  0  0
  8  7  1  0  0  0  0
  9  8  2  0  0  0  0
  9 27  1  0  0  0  0
 10  9  1  0  0  0  0
 10 28  1  0  0  0  0
 11 10  2  0  0  0  0
 11 29  1  0  0  0  0
 12 11  1  0  0  0  0
 12 30  1  0  0  0  0
 13 12  2  0  0  0  0
 13  5  1  0  0  0  0
 13  8  1  0  0  0  0
 14  1  1  0  0  0  0
 15 14  1  0  0  0  0
 16 15  2  0  0  0  0
 17 16  1  0  0  0  0
 18 17  2  0  0  0  0
 18 31  1  0  0  0  0
 19 18  1  0  0  0  0
 19 32  1  0  0  0  0
 20 19  2  0  0  0  0
 20 33  1  0  0  0  0
 21 20  1  0  0  0  0
 21 34  1  0  0  0  0
 22 21  2  0  0  0  0
 22 14  1  0  0  0  0
 22 17  1  0  0  0  0
M  END
>  <MOL Chiral Flag>
0

>  <energy>
26.354192823850692

$$$$
