>191.sdf
 OpenBabel10052220263D

 35 38  0  0  0  0  0  0  0  0999 V2000
    1.9273   -3.1774    2.1530 Cl  0  0  0  0  0  0  0  0  0  0  0  0
    0.3899   -2.8193    1.3558 C   0  0  0  0  0  0  0  0  0  0  0  0
    0.1476   -1.6686    0.5464 C   0  0  0  0  0  0  0  0  0  0  0  0
   -1.1685   -1.4755   -0.0000 C   0  0  0  0  0  0  0  0  0  0  0  0
   -2.1787   -2.4653    0.2411 C   0  0  0  0  0  0  0  0  0  0  0  0
   -3.5228   -2.4714   -0.2704 N   0  0  0  0  0  0  0  0  0  0  0  0
   -4.2715   -1.4814   -0.8339 C   0  0  0  0  0  0  0  0  0  0  0  0
   -3.8271   -0.3539   -0.9823 O   0  0  0  0  0  0  0  0  0  0  0  0
   -5.6957   -1.7990   -1.1922 C   0  0  0  0  0  0  0  0  0  0  0  0
   -6.7231   -0.9300   -1.5871 C   0  0  0  0  0  0  0  0  0  0  0  0
   -7.9743   -1.5941   -1.7970 C   0  0  0  0  0  0  0  0  0  0  0  0
   -7.9277   -2.9731   -1.5777 C   0  0  0  0  0  0  0  0  0  0  0  0
   -6.3791   -3.3224   -1.1322 S   0  0  0  0  0  0  0  0  0  0  0  0
   -1.8550   -3.5724    1.0343 C   0  0  0  0  0  0  0  0  0  0  0  0
   -0.6123   -3.7358    1.5871 C   0  0  0  0  0  0  0  0  0  0  0  0
    1.3000   -0.7375    0.2988 C   0  0  0  0  0  0  0  0  0  0  0  0
    1.2553    0.5448   -0.1678 N   0  0  0  0  0  0  0  0  0  0  0  0
    2.5623    0.9222   -0.1465 C   0  0  0  0  0  0  0  0  0  0  0  0
    3.3193   -0.1142    0.2900 C   0  0  0  0  0  0  0  0  0  0  0  0
    2.5415   -1.1109    0.5562 O   0  0  0  0  0  0  0  0  0  0  0  0
    4.7005   -0.0517    0.4233 C   0  0  0  0  0  0  0  0  0  0  0  0
    5.3298    1.1588    0.0999 C   0  0  0  0  0  0  0  0  0  0  0  0
    4.5586    2.2611   -0.3443 C   0  0  0  0  0  0  0  0  0  0  0  0
    3.1503    2.1475   -0.4759 C   0  0  0  0  0  0  0  0  0  0  0  0
   -1.3723   -0.6139   -0.6229 H   0  0  0  0  0  0  0  0  0  0  0  0
   -4.0144   -3.3641   -0.1333 H   0  0  0  0  0  0  0  0  0  0  0  0
   -6.6009    0.1370   -1.7026 H   0  0  0  0  0  0  0  0  0  0  0  0
   -8.8828   -1.0856   -2.0904 H   0  0  0  0  0  0  0  0  0  0  0  0
   -8.7443   -3.6790   -1.6697 H   0  0  0  0  0  0  0  0  0  0  0  0
   -2.6008   -4.3301    1.2386 H   0  0  0  0  0  0  0  0  0  0  0  0
   -0.4222   -4.6018    2.2063 H   0  0  0  0  0  0  0  0  0  0  0  0
    5.2672   -0.9070    0.7714 H   0  0  0  0  0  0  0  0  0  0  0  0
    6.4058    1.2452    0.1984 H   0  0  0  0  0  0  0  0  0  0  0  0
    5.0560    3.1927   -0.5808 H   0  0  0  0  0  0  0  0  0  0  0  0
    2.5592    2.9877   -0.8108 H   0  0  0  0  0  0  0  0  0  0  0  0
  2  1  1  0  0  0  0
  3  2  2  0  0  0  0
  4  3  1  0  0  0  0
  4 25  1  0  0  0  0
  5  4  2  0  0  0  0
  6  5  1  0  0  0  0
  6 26  1  0  0  0  0
  7  6  1  0  0  0  0
  8  7  2  0  0  0  0
  9  7  1  0  0  0  0
 10  9  2  0  0  0  0
 10 27  1  0  0  0  0
 11 10  1  0  0  0  0
 11 28  1  0  0  0  0
 12 11  2  0  0  0  0
 12 29  1  0  0  0  0
 13 12  1  0  0  0  0
 13  9  1  0  0  0  0
 14  5  1  0  0  0  0
 14 30  1  0  0  0  0
 15 14  2  0  0  0  0
 15  2  1  0  0  0  0
 15 31  1  0  0  0  0
 16  3  1  0  0  0  0
 17 16  2  0  0  0  0
 18 17  1  0  0  0  0
 19 18  2  0  0  0  0
 20 19  1  0  0  0  0
 20 16  1  0  0  0  0
 21 19  1  0  0  0  0
 21 32  1  0  0  0  0
 22 21  2  0  0  0  0
 22 33  1  0  0  0  0
 23 22  1  0  0  0  0
 23 34  1  0  0  0  0
 24 23  2  0  0  0  0
 24 18  1  0  0  0  0
 24 35  1  0  0  0  0
M  END
>  <MOL Chiral Flag>
0

>  <energy>
48.155794379908293

$$$$
