>192.sdf
 OpenBabel10052220273D

 39 40  0  0  0  0  0  0  0  0999 V2000
   -5.2883   -0.9702    3.2831 F   0  0  0  0  0  0  0  0  0  0  0  0
   -4.2931   -1.9023    3.0465 C   0  0  0  0  0  0  0  0  0  0  0  0
   -3.6640   -2.1862    4.2458 F   0  0  0  0  0  0  0  0  0  0  0  0
   -4.8716   -3.0625    2.5647 F   0  0  0  0  0  0  0  0  0  0  0  0
   -3.3306   -1.3537    2.0218 C   0  0  0  0  0  0  0  0  0  0  0  0
   -3.8126   -1.0049    0.7535 C   0  0  0  0  0  0  0  0  0  0  0  0
   -2.9531   -0.4724   -0.2068 C   0  0  0  0  0  0  0  0  0  0  0  0
   -1.5849   -0.2779    0.0818 C   0  0  0  0  0  0  0  0  0  0  0  0
   -1.0977   -0.6395    1.3435 C   0  0  0  0  0  0  0  0  0  0  0  0
   -1.9632   -1.1734    2.3099 C   0  0  0  0  0  0  0  0  0  0  0  0
   -0.7118    0.3088   -0.8808 N   0  0  0  0  0  0  0  0  0  0  0  0
   -1.1796    0.7025   -1.9648 N   0  0  0  0  0  0  0  0  0  0  0  0
   -0.4552    1.3557   -2.9407 N   0  0  0  0  0  0  0  0  0  0  0  0
    0.9577    1.6422   -2.9656 C   0  0  0  0  0  0  0  0  0  0  0  0
    1.4015    2.3355   -3.9681 N   0  0  0  0  0  0  0  0  0  0  0  0
    1.8745    1.2191   -1.9333 N   0  0  0  0  0  0  0  0  0  0  0  0
    3.2346    1.1601   -2.2052 N   0  0  0  0  0  0  0  0  0  0  0  0
    4.1883    1.0702   -1.2305 C   0  0  0  0  0  0  0  0  0  0  0  0
    3.8382    1.0368   -0.0611 O   0  0  0  0  0  0  0  0  0  0  0  0
    5.6748    1.0585   -1.5800 C   0  0  0  0  0  0  0  0  0  0  0  0
    6.6877    1.0135   -0.5725 C   0  0  0  0  0  0  0  0  0  0  0  0
    6.3317    0.9590    1.1531 Cl  0  0  0  0  0  0  0  0  0  0  0  0
    8.0448    1.0174   -0.9345 C   0  0  0  0  0  0  0  0  0  0  0  0
    8.4278    1.0651   -2.2728 C   0  0  0  0  0  0  0  0  0  0  0  0
   10.1276    1.0703   -2.7090 Cl  0  0  0  0  0  0  0  0  0  0  0  0
    7.4608    1.1103   -3.2667 C   0  0  0  0  0  0  0  0  0  0  0  0
    6.1075    1.1078   -2.9359 C   0  0  0  0  0  0  0  0  0  0  0  0
   -4.8610   -1.1370    0.5121 H   0  0  0  0  0  0  0  0  0  0  0  0
   -3.3603   -0.2029   -1.1731 H   0  0  0  0  0  0  0  0  0  0  0  0
   -0.0520   -0.4952    1.5827 H   0  0  0  0  0  0  0  0  0  0  0  0
   -1.5664   -1.4351    3.2819 H   0  0  0  0  0  0  0  0  0  0  0  0
   -0.9980    1.6758   -3.7561 H   0  0  0  0  0  0  0  0  0  0  0  0
    2.3811    2.6319   -4.0510 H   0  0  0  0  0  0  0  0  0  0  0  0
    1.5352    0.9609   -0.9997 H   0  0  0  0  0  0  0  0  0  0  0  0
    3.5256    1.1862   -3.1787 H   0  0  0  0  0  0  0  0  0  0  0  0
    8.8085    0.9851   -0.1675 H   0  0  0  0  0  0  0  0  0  0  0  0
    7.7553    1.1496   -4.3088 H   0  0  0  0  0  0  0  0  0  0  0  0
    5.4312    1.1474   -3.7677 H   0  0  0  0  0  0  0  0  0  0  0  0
    0.7603    2.6522   -4.7091 H   0  0  0  0  0  0  0  0  0  0  0  0
  2  1  1  0  0  0  0
  3  2  1  0  0  0  0
  4  2  1  0  0  0  0
  5  2  1  0  0  0  0
  6  5  2  0  0  0  0
  6 28  1  0  0  0  0
  7  6  1  0  0  0  0
  7 29  1  0  0  0  0
  8  7  2  0  0  0  0
  9  8  1  0  0  0  0
  9 30  1  0  0  0  0
 10  9  2  0  0  0  0
 10  5  1  0  0  0  0
 10 31  1  0  0  0  0
 11  8  1  0  0  0  0
 12 11  2  0  0  0  0
 13 12  1  0  0  0  0
 13 32  1  0  0  0  0
 14 13  1  0  0  0  0
 15 14  2  0  0  0  0
 15 33  1  0  0  0  0
 15 39  1  0  0  0  0
 16 14  1  0  0  0  0
 16 34  1  0  0  0  0
 17 16  1  0  0  0  0
 17 35  1  0  0  0  0
 18 17  1  0  0  0  0
 19 18  2  0  0  0  0
 20 18  1  0  0  0  0
 21 20  2  0  0  0  0
 22 21  1  0  0  0  0
 23 21  1  0  0  0  0
 23 36  1  0  0  0  0
 24 23  2  0  0  0  0
 25 24  1  0  0  0  0
 26 24  1  0  0  0  0
 26 37  1  0  0  0  0
 27 26  2  0  0  0  0
 27 20  1  0  0  0  0
 27 38  1  0  0  0  0
M  END
>  <MOL Chiral Flag>
0

>  <energy>
43.166650132952732

$$$$
