>196.sdf
 OpenBabel10052220283D

 54 55  0  0  0  0  0  0  0  0999 V2000
   -4.4545   -8.4452    1.9348 C   0  0  0  0  0  0  0  0  0  0  0  0
   -4.2060   -7.7499    0.5978 C   0  0  0  0  0  0  0  0  0  0  0  0
   -3.3256   -6.5061    0.7787 C   0  0  0  0  0  0  0  0  0  0  0  0
   -3.1526   -5.7110   -0.5366 C   0  0  0  0  0  0  0  0  0  0  0  0
   -1.6963   -5.4691   -0.9753 C   0  0  0  0  0  0  0  0  0  0  0  0
   -0.8698   -4.6952    0.0656 C   0  0  0  0  0  0  0  0  0  0  0  0
    0.4855   -4.2532   -0.5045 C   0  0  0  0  0  0  0  0  0  0  0  0
    1.3094   -3.5069    0.5570 C   0  0  0  0  0  0  0  0  0  0  0  0
    2.6675   -3.0599   -0.0085 C   0  0  0  0  0  0  0  0  0  0  0  0
    3.5633   -2.3832    1.0472 C   0  0  0  0  0  0  0  0  0  0  0  0
    3.1573   -1.0275    1.4378 N   0  0  0  0  0  0  0  0  0  0  0  0
    2.1541   -0.2588    0.9574 C   0  0  0  0  0  0  0  0  0  0  0  0
    2.2334    0.9547    1.6094 C   0  0  0  0  0  0  0  0  0  0  0  0
    1.3529    2.1439    1.3801 C   0  0  0  0  0  0  0  0  0  0  0  0
    1.5254    2.5510    0.0407 O   0  0  0  0  0  0  0  0  0  0  0  0
    0.4419    3.3482   -0.3749 C   0  0  0  0  0  0  0  0  0  0  0  0
    0.7842    3.9245   -1.7457 C   0  0  1  0  0  0  0  0  0  0  0  0
    0.4594    3.0728   -2.9116 C   0  0  0  0  0  0  0  0  0  0  0  0
   -0.3435    4.1799   -2.5321 O   0  0  0  0  0  0  0  0  0  0  0  0
    3.2736    0.8799    2.4645 N   0  3  0  0  0  0  0  0  0  0  0  0
    3.7708    1.9188    3.3603 C   0  0  0  0  0  0  0  0  0  0  0  0
    3.8192   -0.3195    2.3450 N   0  0  0  0  0  0  0  0  0  0  0  0
   -5.1025   -9.3335    1.7810 H   0  0  0  0  0  0  0  0  0  0  0  0
   -3.4958   -8.7757    2.3880 H   0  0  0  0  0  0  0  0  0  0  0  0
   -4.9678   -7.7521    2.6356 H   0  0  0  0  0  0  0  0  0  0  0  0
   -3.7052   -8.4602   -0.0969 H   0  0  0  0  0  0  0  0  0  0  0  0
   -5.1872   -7.4578    0.1655 H   0  0  0  0  0  0  0  0  0  0  0  0
   -2.3505   -6.8274    1.1981 H   0  0  0  0  0  0  0  0  0  0  0  0
   -3.8069   -5.8331    1.5235 H   0  0  0  0  0  0  0  0  0  0  0  0
   -3.6523   -4.7238   -0.4175 H   0  0  0  0  0  0  0  0  0  0  0  0
   -3.6798   -6.2198   -1.3736 H   0  0  0  0  0  0  0  0  0  0  0  0
   -1.7441   -4.8709   -1.9118 H   0  0  0  0  0  0  0  0  0  0  0  0
   -1.1988   -6.4362   -1.2108 H   0  0  0  0  0  0  0  0  0  0  0  0
   -1.4283   -3.7876    0.3777 H   0  0  0  0  0  0  0  0  0  0  0  0
   -0.6994   -5.3363    0.9565 H   0  0  0  0  0  0  0  0  0  0  0  0
    0.3099   -3.5789   -1.3721 H   0  0  0  0  0  0  0  0  0  0  0  0
    1.0525   -5.1439   -0.8559 H   0  0  0  0  0  0  0  0  0  0  0  0
    0.7342   -2.6329    0.9243 H   0  0  0  0  0  0  0  0  0  0  0  0
    1.4874   -4.1937    1.4141 H   0  0  0  0  0  0  0  0  0  0  0  0
    3.1967   -3.9760   -0.3509 H   0  0  0  0  0  0  0  0  0  0  0  0
    2.5432   -2.3929   -0.8893 H   0  0  0  0  0  0  0  0  0  0  0  0
    4.5879   -2.3045    0.6247 H   0  0  0  0  0  0  0  0  0  0  0  0
    3.6167   -3.0341    1.9466 H   0  0  0  0  0  0  0  0  0  0  0  0
    1.4453   -0.5359    0.1888 H   0  0  0  0  0  0  0  0  0  0  0  0
    1.6388    2.9770    2.0578 H   0  0  0  0  0  0  0  0  0  0  0  0
    0.3072    1.8267    1.6005 H   0  0  0  0  0  0  0  0  0  0  0  0
   -0.4856    2.7327   -0.4339 H   0  0  0  0  0  0  0  0  0  0  0  0
    0.2825    4.2081    0.3149 H   0  0  0  0  0  0  0  0  0  0  0  0
    1.6038    4.6592   -1.8922 H   0  0  0  0  0  0  0  0  0  0  0  0
    0.9282    3.3207   -3.8864 H   0  0  0  0  0  0  0  0  0  0  0  0
   -0.1511    2.1559   -2.7707 H   0  0  0  0  0  0  0  0  0  0  0  0
    2.9788    2.2060    4.0829 H   0  0  0  0  0  0  0  0  0  0  0  0
    4.0735    2.8094    2.7696 H   0  0  0  0  0  0  0  0  0  0  0  0
    4.6541    1.5497    3.9235 H   0  0  0  0  0  0  0  0  0  0  0  0
  1 23  1  0  0  0  0
  1 24  1  0  0  0  0
  1 25  1  0  0  0  0
  2  1  1  0  0  0  0
  2 26  1  0  0  0  0
  2 27  1  0  0  0  0
  3  2  1  0  0  0  0
  3 28  1  0  0  0  0
  3 29  1  0  0  0  0
  4  3  1  0  0  0  0
  4 30  1  0  0  0  0
  4 31  1  0  0  0  0
  5  4  1  0  0  0  0
  5 32  1  0  0  0  0
  5 33  1  0  0  0  0
  6  5  1  0  0  0  0
  6 34  1  0  0  0  0
  6 35  1  0  0  0  0
  7  6  1  0  0  0  0
  7 36  1  0  0  0  0
  7 37  1  0  0  0  0
  8  7  1  0  0  0  0
  8 38  1  0  0  0  0
  8 39  1  0  0  0  0
  9  8  1  0  0  0  0
  9 40  1  0  0  0  0
  9 41  1  0  0  0  0
 10  9  1  0  0  0  0
 10 42  1  0  0  0  0
 10 43  1  0  0  0  0
 11 10  1  0  0  0  0
 12 11  1  0  0  0  0
 12 44  1  0  0  0  0
 13 12  2  0  0  0  0
 14 13  1  0  0  0  0
 14 45  1  0  0  0  0
 14 46  1  0  0  0  0
 15 14  1  0  0  0  0
 16 15  1  0  0  0  0
 16 47  1  0  0  0  0
 16 48  1  0  0  0  0
 17 16  1  0  0  0  0
 17 49  1  6  0  0  0
 18 17  1  0  0  0  0
 18 50  1  0  0  0  0
 18 51  1  0  0  0  0
 19 18  1  0  0  0  0
 19 17  1  0  0  0  0
 20 13  1  0  0  0  0
 21 20  1  0  0  0  0
 21 52  1  0  0  0  0
 21 53  1  0  0  0  0
 21 54  1  0  0  0  0
 22 20  2  0  0  0  0
 22 11  1  0  0  0  0
M  CHG  1  20   1
M  END
>  <MOL Chiral Flag>
0

>  <energy>
65.910109705830394

$$$$
