>202.sdf
 OpenBabel10052220313D

 45 47  0  0  0  0  0  0  0  0999 V2000
    0.6199   -0.3221   -3.7689 C   0  0  0  0  0  0  0  0  0  0  0  0
    1.5587    0.3456   -3.0079 O   0  0  0  0  0  0  0  0  0  0  0  0
    1.6916    0.2554   -1.6545 C   0  0  0  0  0  0  0  0  0  0  0  0
    0.8701   -0.5908   -0.8854 C   0  0  0  0  0  0  0  0  0  0  0  0
    1.0169   -0.6591    0.5112 C   0  0  0  0  0  0  0  0  0  0  0  0
    0.1515   -1.5091    1.3800 C   0  0  0  0  0  0  0  0  0  0  0  0
   -0.9580   -2.1415    0.9519 C   0  0  0  0  0  0  0  0  0  0  0  0
   -1.8292   -2.9014    1.8715 C   0  0  0  0  0  0  0  0  0  0  0  0
   -1.5257   -3.0240    3.0490 O   0  0  0  0  0  0  0  0  0  0  0  0
   -3.0238   -3.3460    1.3961 O   0  0  0  0  0  0  0  0  0  0  0  0
   -4.0027   -4.0461    2.0311 C   0  0  0  0  0  0  0  0  0  0  0  0
   -3.7937   -4.7644    3.2384 C   0  0  0  0  0  0  0  0  0  0  0  0
   -4.8775   -5.4407    3.7951 C   0  0  0  0  0  0  0  0  0  0  0  0
   -6.1117   -5.4353    3.2248 C   0  0  0  0  0  0  0  0  0  0  0  0
   -7.0679   -6.2507    4.0570 C   0  0  0  0  0  0  0  0  0  0  0  0
   -6.2574   -6.6918    5.1075 O   0  0  0  0  0  0  0  0  0  0  0  0
   -4.9942   -6.2368    4.9741 C   0  0  0  0  0  0  0  0  0  0  0  0
   -4.0957   -6.4836    5.7620 O   0  0  0  0  0  0  0  0  0  0  0  0
   -6.3524   -4.7479    2.0395 C   0  0  0  0  0  0  0  0  0  0  0  0
   -5.2883   -4.0538    1.4406 C   0  0  0  0  0  0  0  0  0  0  0  0
    1.9935    0.1277    1.1295 C   0  0  0  0  0  0  0  0  0  0  0  0
    2.8187    0.9924    0.3838 C   0  0  0  0  0  0  0  0  0  0  0  0
    3.7332    1.7877    1.0034 O   0  0  0  0  0  0  0  0  0  0  0  0
    3.8647    1.9485    2.3689 C   0  0  0  0  0  0  0  0  0  0  0  0
    2.6699    1.0481   -1.0299 C   0  0  0  0  0  0  0  0  0  0  0  0
    3.4252    1.8519   -1.8327 O   0  0  0  0  0  0  0  0  0  0  0  0
    4.4616    2.6820   -1.4596 C   0  0  0  0  0  0  0  0  0  0  0  0
    0.7448   -0.0330   -4.8325 H   0  0  0  0  0  0  0  0  0  0  0  0
   -0.4061   -0.0397   -3.4483 H   0  0  0  0  0  0  0  0  0  0  0  0
    0.7614   -1.4203   -3.6828 H   0  0  0  0  0  0  0  0  0  0  0  0
    0.1264   -1.1891   -1.3821 H   0  0  0  0  0  0  0  0  0  0  0  0
    0.4107   -1.5742    2.4340 H   0  0  0  0  0  0  0  0  0  0  0  0
   -1.2808   -2.0704   -0.0769 H   0  0  0  0  0  0  0  0  0  0  0  0
   -2.8363   -4.8155    3.7313 H   0  0  0  0  0  0  0  0  0  0  0  0
   -7.4617   -7.1126    3.4783 H   0  0  0  0  0  0  0  0  0  0  0  0
   -7.8983   -5.6211    4.4404 H   0  0  0  0  0  0  0  0  0  0  0  0
   -7.3361   -4.7474    1.5886 H   0  0  0  0  0  0  0  0  0  0  0  0
   -5.4590   -3.5115    0.5190 H   0  0  0  0  0  0  0  0  0  0  0  0
    2.0919    0.0773    2.2057 H   0  0  0  0  0  0  0  0  0  0  0  0
    2.9154    2.3373    2.7984 H   0  0  0  0  0  0  0  0  0  0  0  0
    4.1401    0.9878    2.8522 H   0  0  0  0  0  0  0  0  0  0  0  0
    4.6656    2.6882    2.5709 H   0  0  0  0  0  0  0  0  0  0  0  0
    4.8575    3.1872   -2.3641 H   0  0  0  0  0  0  0  0  0  0  0  0
    4.1022    3.4673   -0.7620 H   0  0  0  0  0  0  0  0  0  0  0  0
    5.2843    2.0889   -1.0064 H   0  0  0  0  0  0  0  0  0  0  0  0
  1 28  1  0  0  0  0
  1 29  1  0  0  0  0
  1 30  1  0  0  0  0
  2  1  1  0  0  0  0
  3  2  1  0  0  0  0
  4  3  2  0  0  0  0
  4 31  1  0  0  0  0
  5  4  1  0  0  0  0
  6  5  1  0  0  0  0
  6 32  1  0  0  0  0
  7  6  2  0  0  0  0
  7 33  1  0  0  0  0
  8  7  1  0  0  0  0
  9  8  2  0  0  0  0
 10  8  1  0  0  0  0
 11 10  1  0  0  0  0
 12 11  2  0  0  0  0
 12 34  1  0  0  0  0
 13 12  1  0  0  0  0
 14 13  2  0  0  0  0
 15 14  1  0  0  0  0
 15 35  1  0  0  0  0
 15 36  1  0  0  0  0
 16 15  1  0  0  0  0
 17 16  1  0  0  0  0
 17 13  1  0  0  0  0
 18 17  2  0  0  0  0
 19 14  1  0  0  0  0
 19 37  1  0  0  0  0
 20 19  2  0  0  0  0
 20 11  1  0  0  0  0
 20 38  1  0  0  0  0
 21  5  2  0  0  0  0
 21 39  1  0  0  0  0
 22 21  1  0  0  0  0
 23 22  1  0  0  0  0
 24 23  1  0  0  0  0
 24 40  1  0  0  0  0
 24 41  1  0  0  0  0
 24 42  1  0  0  0  0
 25 22  2  0  0  0  0
 25  3  1  0  0  0  0
 26 25  1  0  0  0  0
 27 26  1  0  0  0  0
 27 43  1  0  0  0  0
 27 44  1  0  0  0  0
 27 45  1  0  0  0  0
M  END
>  <MOL Chiral Flag>
0

>  <energy>
106.23981094192975

$$$$
