>204.sdf
 OpenBabel10052220313D

 29 31  0  0  0  0  0  0  0  0999 V2000
   -3.4158    4.0242    4.5925 O   0  0  0  0  0  0  0  0  0  0  0  0
   -2.6241    2.9876    4.2573 C   0  0  0  0  0  0  0  0  0  0  0  0
   -2.0638    2.3516    5.1365 O   0  0  0  0  0  0  0  0  0  0  0  0
   -2.3693    2.6964    2.8012 C   0  0  0  0  0  0  0  0  0  0  0  0
   -1.4558    1.4709    2.5500 C   0  0  0  0  0  0  0  0  0  0  0  0
   -0.6959    1.5447    1.2453 C   0  0  0  0  0  0  0  0  0  0  0  0
    0.0656    0.4683    0.7755 C   0  0  0  0  0  0  0  0  0  0  0  0
    0.1586   -0.7885    1.2751 N   0  0  0  0  0  0  0  0  0  0  0  0
    1.0239   -1.4375    0.4628 C   0  0  0  0  0  0  0  0  0  0  0  0
    1.4844   -0.6019   -0.5307 C   0  0  0  0  0  0  0  0  0  0  0  0
    2.4026   -1.0299   -1.4857 C   0  0  0  0  0  0  0  0  0  0  0  0
    2.8495   -2.3626   -1.4181 C   0  0  0  0  0  0  0  0  0  0  0  0
    2.3671   -3.2286   -0.4079 C   0  0  0  0  0  0  0  0  0  0  0  0
    1.4425   -2.7645    0.5492 C   0  0  0  0  0  0  0  0  0  0  0  0
    0.8643    0.6088   -0.3359 C   0  0  0  0  0  0  0  0  0  0  0  0
    0.9431    1.8087   -1.0312 C   0  0  0  0  0  0  0  0  0  0  0  0
    0.1583    2.8748   -0.5649 C   0  0  0  0  0  0  0  0  0  0  0  0
   -0.6296    2.7218    0.5449 N   0  0  0  0  0  0  0  0  0  0  0  0
   -1.9167    3.6277    2.4082 H   0  0  0  0  0  0  0  0  0  0  0  0
   -3.3330    2.5269    2.2691 H   0  0  0  0  0  0  0  0  0  0  0  0
   -2.0733    0.5485    2.6288 H   0  0  0  0  0  0  0  0  0  0  0  0
   -0.6569    1.4156    3.3194 H   0  0  0  0  0  0  0  0  0  0  0  0
   -0.3381   -1.1819    2.1047 H   0  0  0  0  0  0  0  0  0  0  0  0
    2.7644   -0.3605   -2.2554 H   0  0  0  0  0  0  0  0  0  0  0  0
    3.5643   -2.7267   -2.1447 H   0  0  0  0  0  0  0  0  0  0  0  0
    2.7133   -4.2533   -0.3697 H   0  0  0  0  0  0  0  0  0  0  0  0
    1.0697   -3.4197    1.3254 H   0  0  0  0  0  0  0  0  0  0  0  0
    1.5807    1.9200   -1.8978 H   0  0  0  0  0  0  0  0  0  0  0  0
    0.1882    3.8293   -1.0725 H   0  0  0  0  0  0  0  0  0  0  0  0
  2  1  1  0  0  0  0
  3  2  2  0  0  0  0
  4  2  1  0  0  0  0
  4 19  1  0  0  0  0
  4 20  1  0  0  0  0
  5  4  1  0  0  0  0
  5 21  1  0  0  0  0
  5 22  1  0  0  0  0
  6  5  1  0  0  0  0
  7  6  2  0  0  0  0
  8  7  1  0  0  0  0
  8 23  1  0  0  0  0
  9  8  1  0  0  0  0
 10  9  2  0  0  0  0
 11 10  1  0  0  0  0
 11 24  1  0  0  0  0
 12 11  2  0  0  0  0
 12 25  1  0  0  0  0
 13 12  1  0  0  0  0
 13 26  1  0  0  0  0
 14 13  2  0  0  0  0
 14  9  1  0  0  0  0
 14 27  1  0  0  0  0
 15 10  1  0  0  0  0
 15  7  1  0  0  0  0
 16 15  2  0  0  0  0
 16 28  1  0  0  0  0
 17 16  1  0  0  0  0
 17 29  1  0  0  0  0
 18 17  2  0  0  0  0
 18  6  1  0  0  0  0
M  END
>  <MOL Chiral Flag>
0

>  <energy>
-15.364214424923432

$$$$
