>206.sdf
 OpenBabel10052220323D

 57 61  0  0  0  0  0  0  0  0999 V2000
    1.8155   -4.1908   -1.0469 F   0  0  0  0  0  0  0  0  0  0  0  0
    2.7320   -3.3394   -0.5238 C   0  0  0  0  0  0  0  0  0  0  0  0
    4.0280   -3.8043   -0.2343 C   0  0  0  0  0  0  0  0  0  0  0  0
    4.9898   -2.9295    0.2827 C   0  0  0  0  0  0  0  0  0  0  0  0
    4.6221   -1.6085    0.5098 C   0  0  0  0  0  0  0  0  0  0  0  0
    5.5488   -0.3697    1.0704 S   0  0  0  0  0  0  0  0  0  0  0  0
    4.4203    0.8470    1.0313 C   0  0  0  0  0  0  0  0  0  0  0  0
    3.2016    0.2921    0.5736 C   0  0  0  0  0  0  0  0  0  0  0  0
    3.3370   -1.1168    0.2579 C   0  0  0  0  0  0  0  0  0  0  0  0
    2.3811   -1.9970   -0.2860 C   0  0  0  0  0  0  0  0  0  0  0  0
    1.9631    1.1368    0.4629 C   0  0  0  0  0  0  0  0  0  0  0  0
    2.0808    2.5235    0.2393 C   0  0  0  0  0  0  0  0  0  0  0  0
    0.9461    3.3324    0.1316 C   0  0  0  0  0  0  0  0  0  0  0  0
   -0.3420    2.7834    0.2493 C   0  0  0  0  0  0  0  0  0  0  0  0
   -1.5630    3.6871    0.1073 C   0  0  0  0  0  0  0  0  0  0  0  0
   -2.2729    3.4911   -1.1752 N   0  3  0  0  0  0  0  0  0  0  0  0
   -3.3379    2.4692   -1.1480 C   0  0  0  0  0  0  0  0  0  0  0  0
   -3.7665    2.1273   -2.5852 C   0  0  0  0  0  0  0  0  0  0  0  0
   -4.8338    1.0258   -2.6805 C   0  0  0  0  0  0  0  0  0  0  0  0
   -6.1840    1.5009   -2.4127 N   0  0  0  0  0  0  0  0  0  0  0  0
   -7.3266    0.6539   -2.6470 C   0  0  0  0  0  0  0  0  0  0  0  0
   -8.6453    1.1828   -2.8113 C   0  0  0  0  0  0  0  0  0  0  0  0
   -8.9407    2.5646   -2.7493 C   0  0  0  0  0  0  0  0  0  0  0  0
  -10.2479    3.0212   -2.9569 C   0  0  0  0  0  0  0  0  0  0  0  0
  -11.2784    2.1200   -3.2278 C   0  0  0  0  0  0  0  0  0  0  0  0
  -12.9099    2.7053   -3.5022 Cl  0  0  0  0  0  0  0  0  0  0  0  0
  -11.0107    0.7541   -3.2890 C   0  0  0  0  0  0  0  0  0  0  0  0
   -9.7106    0.2785   -3.0849 C   0  0  0  0  0  0  0  0  0  0  0  0
   -9.4778   -1.0545   -3.1697 N   0  0  0  0  0  0  0  0  0  0  0  0
   -8.2385   -1.5752   -3.0119 C   0  0  0  0  0  0  0  0  0  0  0  0
   -7.1529   -0.7426   -2.7601 C   0  0  0  0  0  0  0  0  0  0  0  0
   -0.4655    1.4095    0.5073 C   0  0  0  0  0  0  0  0  0  0  0  0
    0.6702    0.5977    0.6150 C   0  0  0  0  0  0  0  0  0  0  0  0
    4.2871   -4.8379   -0.4248 H   0  0  0  0  0  0  0  0  0  0  0  0
    5.9949   -3.2725    0.4923 H   0  0  0  0  0  0  0  0  0  0  0  0
    4.5992    1.8669    1.3413 H   0  0  0  0  0  0  0  0  0  0  0  0
    1.3910   -1.6793   -0.5545 H   0  0  0  0  0  0  0  0  0  0  0  0
    3.0519    2.9856    0.1241 H   0  0  0  0  0  0  0  0  0  0  0  0
    1.0759    4.3907   -0.0586 H   0  0  0  0  0  0  0  0  0  0  0  0
   -1.1917    4.7374    0.1066 H   0  0  0  0  0  0  0  0  0  0  0  0
   -2.2430    3.6100    0.9837 H   0  0  0  0  0  0  0  0  0  0  0  0
   -1.5647    3.2835   -1.9190 H   0  0  0  0  0  0  0  0  0  0  0  0
   -2.7356    4.3941   -1.4362 H   0  0  0  0  0  0  0  0  0  0  0  0
   -4.2025    2.8353   -0.5505 H   0  0  0  0  0  0  0  0  0  0  0  0
   -2.9749    1.5317   -0.6947 H   0  0  0  0  0  0  0  0  0  0  0  0
   -2.8577    1.7360   -3.0931 H   0  0  0  0  0  0  0  0  0  0  0  0
   -4.1024    3.0312   -3.1390 H   0  0  0  0  0  0  0  0  0  0  0  0
   -4.5567    0.1800   -2.0159 H   0  0  0  0  0  0  0  0  0  0  0  0
   -4.8242    0.6708   -3.7342 H   0  0  0  0  0  0  0  0  0  0  0  0
   -6.3068    2.4935   -2.1814 H   0  0  0  0  0  0  0  0  0  0  0  0
   -8.1854    3.3066   -2.5553 H   0  0  0  0  0  0  0  0  0  0  0  0
  -10.4587    4.0821   -2.9138 H   0  0  0  0  0  0  0  0  0  0  0  0
  -11.8127    0.0577   -3.5058 H   0  0  0  0  0  0  0  0  0  0  0  0
   -8.0924   -2.6441   -3.0904 H   0  0  0  0  0  0  0  0  0  0  0  0
   -6.1819   -1.2012   -2.6489 H   0  0  0  0  0  0  0  0  0  0  0  0
   -1.4332    0.9581    0.6494 H   0  0  0  0  0  0  0  0  0  0  0  0
    0.5214   -0.4395    0.8561 H   0  0  0  0  0  0  0  0  0  0  0  0
  2  1  1  0  0  0  0
  3  2  2  0  0  0  0
  3 34  1  0  0  0  0
  4  3  1  0  0  0  0
  4 35  1  0  0  0  0
  5  4  2  0  0  0  0
  6  5  1  0  0  0  0
  7  6  1  0  0  0  0
  7 36  1  0  0  0  0
  8  7  2  0  0  0  0
  9  8  1  0  0  0  0
  9  5  1  0  0  0  0
 10  9  2  0  0  0  0
 10  2  1  0  0  0  0
 10 37  1  0  0  0  0
 11  8  1  0  0  0  0
 12 11  2  0  0  0  0
 12 38  1  0  0  0  0
 13 12  1  0  0  0  0
 13 39  1  0  0  0  0
 14 13  2  0  0  0  0
 15 14  1  0  0  0  0
 15 40  1  0  0  0  0
 15 41  1  0  0  0  0
 16 15  1  0  0  0  0
 16 42  1  0  0  0  0
 16 43  1  0  0  0  0
 17 16  1  0  0  0  0
 17 44  1  0  0  0  0
 17 45  1  0  0  0  0
 18 17  1  0  0  0  0
 18 46  1  0  0  0  0
 18 47  1  0  0  0  0
 19 18  1  0  0  0  0
 19 48  1  0  0  0  0
 19 49  1  0  0  0  0
 20 19  1  0  0  0  0
 20 50  1  0  0  0  0
 21 20  1  0  0  0  0
 22 21  2  0  0  0  0
 23 22  1  0  0  0  0
 23 51  1  0  0  0  0
 24 23  2  0  0  0  0
 24 52  1  0  0  0  0
 25 24  1  0  0  0  0
 26 25  1  0  0  0  0
 27 25  2  0  0  0  0
 27 53  1  0  0  0  0
 28 27  1  0  0  0  0
 28 22  1  0  0  0  0
 29 28  2  0  0  0  0
 30 29  1  0  0  0  0
 30 54  1  0  0  0  0
 31 30  2  0  0  0  0
 31 21  1  0  0  0  0
 31 55  1  0  0  0  0
 32 14  1  0  0  0  0
 32 56  1  0  0  0  0
 33 32  2  0  0  0  0
 33 11  1  0  0  0  0
 33 57  1  0  0  0  0
M  CHG  1  16   1
M  END
>  <MOL Chiral Flag>
0

>  <energy>
71.368754857319459

$$$$
