>207.sdf
 OpenBabel10052220333D

 41 43  0  0  0  0  0  0  0  0999 V2000
    0.7322    2.9822    1.8310 C   0  0  0  0  0  0  0  0  0  0  0  0
    0.2032    1.6521    1.6131 N   0  0  0  0  0  0  0  0  0  0  0  0
    0.9865    0.5396    1.1575 C   0  0  0  0  0  0  0  0  0  0  0  0
    0.6467   -0.6870    1.6378 N   0  0  0  0  0  0  0  0  0  0  0  0
    1.3176   -1.8241    1.3251 C   0  0  0  0  0  0  0  0  0  0  0  0
    0.8722   -3.0575    1.9037 N   0  0  0  0  0  0  0  0  0  0  0  0
    1.5019   -4.3581    1.7220 C   0  0  0  0  0  0  0  0  0  0  0  0
    0.5448   -5.3112    1.0563 C   0  0  0  0  0  0  0  0  0  0  0  0
   -0.6375   -5.6963    1.7060 C   0  0  0  0  0  0  0  0  0  0  0  0
   -1.5200   -6.5899    1.0928 C   0  0  0  0  0  0  0  0  0  0  0  0
   -1.2412   -7.1076   -0.1779 C   0  0  0  0  0  0  0  0  0  0  0  0
   -2.1279   -7.9747   -0.7350 O   0  0  0  0  0  0  0  0  0  0  0  0
   -1.9906   -8.5635   -1.9755 C   0  0  0  0  0  0  0  0  0  0  0  0
   -0.0550   -6.7170   -0.8339 C   0  0  0  0  0  0  0  0  0  0  0  0
    0.8305   -5.8291   -0.2173 C   0  0  0  0  0  0  0  0  0  0  0  0
    2.3829   -1.7566    0.4750 N   0  0  0  0  0  0  0  0  0  0  0  0
    2.7742   -0.5723   -0.0693 C   0  0  0  0  0  0  0  0  0  0  0  0
    3.8651   -0.5514   -0.9551 C   0  0  0  0  0  0  0  0  0  0  0  0
    4.2747    0.6395   -1.5435 C   0  0  0  0  0  0  0  0  0  0  0  0
    3.5963    1.8208   -1.2654 C   0  0  0  0  0  0  0  0  0  0  0  0
    2.5095    1.8243   -0.3866 C   0  0  0  0  0  0  0  0  0  0  0  0
    2.0839    0.6292    0.2447 C   0  0  0  0  0  0  0  0  0  0  0  0
    0.4556    3.6471    0.9867 H   0  0  0  0  0  0  0  0  0  0  0  0
    1.8280    2.9567    2.0116 H   0  0  0  0  0  0  0  0  0  0  0  0
    0.2721    3.4179    2.7436 H   0  0  0  0  0  0  0  0  0  0  0  0
   -0.6005    1.4041    2.2111 H   0  0  0  0  0  0  0  0  0  0  0  0
    0.0365   -3.0195    2.5071 H   0  0  0  0  0  0  0  0  0  0  0  0
    2.4296   -4.3134    1.1363 H   0  0  0  0  0  0  0  0  0  0  0  0
    1.7983   -4.7653    2.7120 H   0  0  0  0  0  0  0  0  0  0  0  0
   -0.8699   -5.3114    2.6911 H   0  0  0  0  0  0  0  0  0  0  0  0
   -2.4254   -6.8839    1.6085 H   0  0  0  0  0  0  0  0  0  0  0  0
   -1.0660   -9.1787   -2.0103 H   0  0  0  0  0  0  0  0  0  0  0  0
   -1.9647   -7.7867   -2.7693 H   0  0  0  0  0  0  0  0  0  0  0  0
   -2.8607   -9.2264   -2.1591 H   0  0  0  0  0  0  0  0  0  0  0  0
    0.1902   -7.0955   -1.8169 H   0  0  0  0  0  0  0  0  0  0  0  0
    1.7368   -5.5409   -0.7360 H   0  0  0  0  0  0  0  0  0  0  0  0
    4.3951   -1.4661   -1.1920 H   0  0  0  0  0  0  0  0  0  0  0  0
    5.1147    0.6439   -2.2260 H   0  0  0  0  0  0  0  0  0  0  0  0
    3.9107    2.7426   -1.7377 H   0  0  0  0  0  0  0  0  0  0  0  0
    2.0220    2.7636   -0.2396 H   0  0  0  0  0  0  0  0  0  0  0  0
    2.9163   -2.6049    0.2048 H   0  0  0  0  0  0  0  0  0  0  0  0
  1 23  1  0  0  0  0
  1 24  1  0  0  0  0
  1 25  1  0  0  0  0
  2  1  1  0  0  0  0
  2 26  1  0  0  0  0
  3  2  1  0  0  0  0
  4  3  2  0  0  0  0
  5  4  1  0  0  0  0
  6  5  1  0  0  0  0
  6 27  1  0  0  0  0
  7  6  1  0  0  0  0
  7 28  1  0  0  0  0
  7 29  1  0  0  0  0
  8  7  1  0  0  0  0
  9  8  2  0  0  0  0
  9 30  1  0  0  0  0
 10  9  1  0  0  0  0
 10 31  1  0  0  0  0
 11 10  2  0  0  0  0
 12 11  1  0  0  0  0
 13 12  1  0  0  0  0
 13 32  1  0  0  0  0
 13 33  1  0  0  0  0
 13 34  1  0  0  0  0
 14 11  1  0  0  0  0
 14 35  1  0  0  0  0
 15 14  2  0  0  0  0
 15  8  1  0  0  0  0
 15 36  1  0  0  0  0
 16  5  2  0  0  0  0
 16 41  1  0  0  0  0
 17 16  1  0  0  0  0
 18 17  2  0  0  0  0
 18 37  1  0  0  0  0
 19 18  1  0  0  0  0
 19 38  1  0  0  0  0
 20 19  2  0  0  0  0
 20 39  1  0  0  0  0
 21 20  1  0  0  0  0
 21 40  1  0  0  0  0
 22 21  2  0  0  0  0
 22  3  1  0  0  0  0
 22 17  1  0  0  0  0
M  END
>  <MOL Chiral Flag>
0

>  <energy>
-71.305749772531868

$$$$
