>210.sdf
 OpenBabel10052220343D

 51 54  0  0  0  0  0  0  0  0999 V2000
   -6.4577    3.4373   -0.1921 O   0  0  0  0  0  0  0  0  0  0  0  0
   -5.3848    2.6530   -0.4216 C   0  0  0  0  0  0  0  0  0  0  0  0
   -5.4561    1.6496   -1.3922 C   0  0  0  0  0  0  0  0  0  0  0  0
   -4.3423    0.8362   -1.6599 C   0  0  0  0  0  0  0  0  0  0  0  0
   -4.4216   -0.1283   -2.6011 O   0  0  0  0  0  0  0  0  0  0  0  0
   -3.1447    1.0305   -0.9412 C   0  0  0  0  0  0  0  0  0  0  0  0
   -1.9111    0.1967   -1.2219 C   0  0  0  0  0  0  0  0  0  0  0  0
   -1.1266    0.0374    0.0868 C   0  0  1  0  0  0  0  0  0  0  0  0
    0.0687   -0.6571   -0.0160 O   0  0  0  0  0  0  0  0  0  0  0  0
    0.2429   -1.9382   -0.4406 C   0  0  0  0  0  0  0  0  0  0  0  0
   -0.5761   -2.4746   -1.1697 O   0  0  0  0  0  0  0  0  0  0  0  0
    1.4085   -2.7051    0.0649 C   0  0  0  0  0  0  0  0  0  0  0  0
    2.2652   -2.1243    1.0127 C   0  0  0  0  0  0  0  0  0  0  0  0
    3.3357   -2.8510    1.5503 C   0  0  0  0  0  0  0  0  0  0  0  0
    4.1390   -2.2864    2.4756 O   0  0  0  0  0  0  0  0  0  0  0  0
    3.5631   -4.1751    1.1312 C   0  0  0  0  0  0  0  0  0  0  0  0
    4.5829   -4.8944    1.6506 O   0  0  0  0  0  0  0  0  0  0  0  0
    2.7165   -4.7582    0.1698 C   0  0  0  0  0  0  0  0  0  0  0  0
    2.9117   -6.0273   -0.2498 O   0  0  0  0  0  0  0  0  0  0  0  0
    1.6451   -4.0256   -0.3570 C   0  0  0  0  0  0  0  0  0  0  0  0
   -0.8421    1.4108    0.7562 C   0  0  2  0  0  0  0  0  0  0  0  0
   -1.9709    2.2149    0.8056 O   0  0  0  0  0  0  0  0  0  0  0  0
   -3.0917    2.0256    0.0630 C   0  0  0  0  0  0  0  0  0  0  0  0
   -4.2037    2.8343    0.3064 C   0  0  0  0  0  0  0  0  0  0  0  0
    0.3001    2.2238    0.1669 C   0  0  0  0  0  0  0  0  0  0  0  0
    1.4852    2.3890    0.9050 C   0  0  0  0  0  0  0  0  0  0  0  0
    2.5333    3.1725    0.4130 C   0  0  0  0  0  0  0  0  0  0  0  0
    3.6526    3.3105    1.1560 O   0  0  0  0  0  0  0  0  0  0  0  0
    2.4068    3.8121   -0.8334 C   0  0  0  0  0  0  0  0  0  0  0  0
    3.4178    4.5810   -1.2953 O   0  0  0  0  0  0  0  0  0  0  0  0
    1.2248    3.6543   -1.5807 C   0  0  0  0  0  0  0  0  0  0  0  0
    1.0932    4.2752   -2.7723 O   0  0  0  0  0  0  0  0  0  0  0  0
    0.1797    2.8625   -1.0798 C   0  0  0  0  0  0  0  0  0  0  0  0
   -6.4349    4.1513    0.4617 H   0  0  0  0  0  0  0  0  0  0  0  0
   -6.3769    1.5067   -1.9444 H   0  0  0  0  0  0  0  0  0  0  0  0
   -5.2409   -0.2984   -3.0881 H   0  0  0  0  0  0  0  0  0  0  0  0
   -1.2979    0.6816   -2.0047 H   0  0  0  0  0  0  0  0  0  0  0  0
   -2.2134   -0.7931   -1.6171 H   0  0  0  0  0  0  0  0  0  0  0  0
   -1.7983   -0.5232    0.7779 H   0  0  0  0  0  0  0  0  0  0  0  0
    2.0938   -1.1098    1.3532 H   0  0  0  0  0  0  0  0  0  0  0  0
    3.9974   -1.3817    2.7906 H   0  0  0  0  0  0  0  0  0  0  0  0
    5.1748   -4.5398    2.3286 H   0  0  0  0  0  0  0  0  0  0  0  0
    3.6308   -6.5792    0.0886 H   0  0  0  0  0  0  0  0  0  0  0  0
    0.9944   -4.4919   -1.0863 H   0  0  0  0  0  0  0  0  0  0  0  0
   -0.5647    1.1444    1.8003 H   0  0  0  0  0  0  0  0  0  0  0  0
   -4.1480    3.6036    1.0670 H   0  0  0  0  0  0  0  0  0  0  0  0
    1.5953    1.9124    1.8717 H   0  0  0  0  0  0  0  0  0  0  0  0
    4.4030    3.8491    0.8683 H   0  0  0  0  0  0  0  0  0  0  0  0
    3.3675    5.0541   -2.1376 H   0  0  0  0  0  0  0  0  0  0  0  0
    0.2894    4.1938   -3.3051 H   0  0  0  0  0  0  0  0  0  0  0  0
   -0.7308    2.7744   -1.6534 H   0  0  0  0  0  0  0  0  0  0  0  0
  1 34  1  0  0  0  0
  2  1  1  0  0  0  0
  3  2  2  0  0  0  0
  3 35  1  0  0  0  0
  4  3  1  0  0  0  0
  5  4  1  0  0  0  0
  5 36  1  0  0  0  0
  6  4  2  0  0  0  0
  7  6  1  0  0  0  0
  7 37  1  0  0  0  0
  7 38  1  0  0  0  0
  8  7  1  0  0  0  0
  8 39  1  1  0  0  0
  9  8  1  0  0  0  0
 10  9  1  0  0  0  0
 11 10  2  0  0  0  0
 12 10  1  0  0  0  0
 13 12  2  0  0  0  0
 13 40  1  0  0  0  0
 14 13  1  0  0  0  0
 15 14  1  0  0  0  0
 15 41  1  0  0  0  0
 16 14  2  0  0  0  0
 17 16  1  0  0  0  0
 17 42  1  0  0  0  0
 18 16  1  0  0  0  0
 19 18  1  0  0  0  0
 19 43  1  0  0  0  0
 20 18  2  0  0  0  0
 20 12  1  0  0  0  0
 20 44  1  0  0  0  0
 21  8  1  0  0  0  0
 21 45  1  1  0  0  0
 22 21  1  0  0  0  0
 23 22  1  0  0  0  0
 23  6  1  0  0  0  0
 24 23  2  0  0  0  0
 24  2  1  0  0  0  0
 24 46  1  0  0  0  0
 25 21  1  0  0  0  0
 26 25  2  0  0  0  0
 26 47  1  0  0  0  0
 27 26  1  0  0  0  0
 28 27  1  0  0  0  0
 28 48  1  0  0  0  0
 29 27  2  0  0  0  0
 30 29  1  0  0  0  0
 30 49  1  0  0  0  0
 31 29  1  0  0  0  0
 32 31  1  0  0  0  0
 32 50  1  0  0  0  0
 33 31  2  0  0  0  0
 33 25  1  0  0  0  0
 33 51  1  0  0  0  0
M  END
>  <MOL Chiral Flag>
0

>  <energy>
53.777957870444837

$$$$
