>214.sdf
 OpenBabel10052220373D

 30 31  0  0  0  0  0  0  0  0999 V2000
    7.8357   -1.6009    0.9838 Cl  0  0  0  0  0  0  0  0  0  0  0  0
    6.0941   -1.5470    1.1900 C   0  0  0  0  0  0  0  0  0  0  0  0
    5.2566   -1.3885    0.0819 C   0  0  0  0  0  0  0  0  0  0  0  0
    3.8631   -1.3452    0.2425 C   0  0  0  0  0  0  0  0  0  0  0  0
    3.2930   -1.4614    1.5335 C   0  0  0  0  0  0  0  0  0  0  0  0
    1.8804   -1.4375    1.8057 N   0  0  0  0  0  0  0  0  0  0  0  0
    0.8350   -1.3147    0.9258 C   0  0  0  0  0  0  0  0  0  0  0  0
    1.0183   -1.1842   -0.2738 O   0  0  0  0  0  0  0  0  0  0  0  0
   -0.4331   -1.3653    1.4183 N   0  0  0  0  0  0  0  0  0  0  0  0
   -1.5536   -1.3050    0.6122 N   0  0  0  0  0  0  0  0  0  0  0  0
   -2.7024   -1.6025    1.1204 C   0  0  0  0  0  0  0  0  0  0  0  0
   -3.9601   -1.5730    0.3587 C   0  0  0  0  0  0  0  0  0  0  0  0
   -5.1657   -2.0174    0.8687 C   0  0  0  0  0  0  0  0  0  0  0  0
   -6.0965   -1.8285   -0.1227 C   0  0  0  0  0  0  0  0  0  0  0  0
   -5.4058   -1.2716   -1.1813 C   0  0  0  0  0  0  0  0  0  0  0  0
   -4.1306   -1.1341   -0.8707 O   0  0  0  0  0  0  0  0  0  0  0  0
   -5.9760   -0.8895   -2.4221 N   0  0  0  0  0  0  0  0  0  0  0  0
   -7.1441   -1.0453   -2.6200 O   0  0  0  0  0  0  0  0  0  0  0  0
   -5.2958   -0.3900   -3.2644 O   0  0  0  0  0  0  0  0  0  0  0  0
    4.1607   -1.6215    2.6335 C   0  0  0  0  0  0  0  0  0  0  0  0
    5.5436   -1.6637    2.4641 C   0  0  0  0  0  0  0  0  0  0  0  0
    5.6875   -1.2996   -0.9072 H   0  0  0  0  0  0  0  0  0  0  0  0
    3.2679   -1.2238   -0.6440 H   0  0  0  0  0  0  0  0  0  0  0  0
    1.6219   -1.5447    2.7988 H   0  0  0  0  0  0  0  0  0  0  0  0
   -0.5563   -1.4956    2.4353 H   0  0  0  0  0  0  0  0  0  0  0  0
   -2.7615   -1.9236    2.1572 H   0  0  0  0  0  0  0  0  0  0  0  0
   -5.3412   -2.4354    1.8515 H   0  0  0  0  0  0  0  0  0  0  0  0
   -7.1512   -2.0663   -0.0726 H   0  0  0  0  0  0  0  0  0  0  0  0
    3.7566   -1.7168    3.6341 H   0  0  0  0  0  0  0  0  0  0  0  0
    6.1857   -1.7884    3.3275 H   0  0  0  0  0  0  0  0  0  0  0  0
  2  1  1  0  0  0  0
  3  2  2  0  0  0  0
  3 22  1  0  0  0  0
  4  3  1  0  0  0  0
  4 23  1  0  0  0  0
  5  4  2  0  0  0  0
  6  5  1  0  0  0  0
  6 24  1  0  0  0  0
  7  6  1  0  0  0  0
  8  7  2  0  0  0  0
  9  7  1  0  0  0  0
  9 25  1  0  0  0  0
 10  9  1  0  0  0  0
 11 10  2  0  0  0  0
 11 26  1  0  0  0  0
 12 11  1  0  0  0  0
 13 12  2  0  0  0  0
 13 27  1  0  0  0  0
 14 13  1  0  0  0  0
 14 28  1  0  0  0  0
 15 14  2  0  0  0  0
 16 15  1  0  0  0  0
 16 12  1  0  0  0  0
 17 15  1  0  0  0  0
 18 17  2  0  0  0  0
 19 17  2  0  0  0  0
 20  5  1  0  0  0  0
 20 29  1  0  0  0  0
 21 20  2  0  0  0  0
 21  2  1  0  0  0  0
 21 30  1  0  0  0  0
M  END
>  <MOL Chiral Flag>
0

>  <energy>
89.578027347840859

$$$$
