>216.sdf
 OpenBabel10052220393D

 42 41  0  0  0  0  0  0  0  0999 V2000
   -5.0814    6.0439   -1.6949 C   0  0  0  0  0  0  0  0  0  0  0  0
   -4.6276    4.6062   -1.7235 C   0  0  0  0  0  0  0  0  0  0  0  0
   -5.6473    3.5163   -1.9783 C   0  0  0  0  0  0  0  0  0  0  0  0
   -3.3181    4.3187   -1.5239 C   0  0  0  0  0  0  0  0  0  0  0  0
   -2.7785    2.9063   -1.5822 C   0  0  0  0  0  0  0  0  0  0  0  0
   -1.2575    2.8148   -1.2998 C   0  0  0  0  0  0  0  0  0  0  0  0
   -0.6538    1.4128   -1.4712 C   0  0  0  0  0  0  0  0  0  0  0  0
   -1.5609    0.2892   -1.9625 C   0  0  0  0  0  0  0  0  0  0  0  0
    0.6683    1.2286   -1.1607 C   0  0  0  0  0  0  0  0  0  0  0  0
    1.4413   -0.0883   -1.2674 C   0  0  0  0  0  0  0  0  0  0  0  0
    1.7482   -0.6377    0.1459 C   0  0  0  0  0  0  0  0  0  0  0  0
    2.0987   -2.1648    0.3031 C   0  0  2  0  0  0  0  0  0  0  0  0
    1.0262   -3.0206   -0.3991 C   0  0  0  0  0  0  0  0  0  0  0  0
    2.0264   -2.4698    1.6750 O   0  0  0  0  0  0  0  0  0  0  0  0
    3.4515   -2.6630   -0.1969 C   0  0  0  0  0  0  0  0  0  0  0  0
    4.4083   -1.9060   -0.7370 C   0  0  0  0  0  0  0  0  0  0  0  0
   -4.8548    6.4973   -0.7076 H   0  0  0  0  0  0  0  0  0  0  0  0
   -4.5574    6.6161   -2.4898 H   0  0  0  0  0  0  0  0  0  0  0  0
   -6.1737    6.1360   -1.8750 H   0  0  0  0  0  0  0  0  0  0  0  0
   -5.6888    2.8271   -1.1088 H   0  0  0  0  0  0  0  0  0  0  0  0
   -6.6664    3.9334   -2.1229 H   0  0  0  0  0  0  0  0  0  0  0  0
   -5.3828    2.9443   -2.8913 H   0  0  0  0  0  0  0  0  0  0  0  0
   -2.6242    5.1343   -1.3323 H   0  0  0  0  0  0  0  0  0  0  0  0
   -2.9888    2.5277   -2.6038 H   0  0  0  0  0  0  0  0  0  0  0  0
   -3.3174    2.2846   -0.8344 H   0  0  0  0  0  0  0  0  0  0  0  0
   -1.0890    3.1569   -0.2541 H   0  0  0  0  0  0  0  0  0  0  0  0
   -0.7195    3.5044   -1.9860 H   0  0  0  0  0  0  0  0  0  0  0  0
   -1.1305   -0.7173   -2.0409 H   0  0  0  0  0  0  0  0  0  0  0  0
   -2.4165    0.1788   -1.2662 H   0  0  0  0  0  0  0  0  0  0  0  0
   -1.9415    0.5414   -2.9731 H   0  0  0  0  0  0  0  0  0  0  0  0
    1.2241    2.0811   -0.7755 H   0  0  0  0  0  0  0  0  0  0  0  0
    2.3641    0.0470   -1.8683 H   0  0  0  0  0  0  0  0  0  0  0  0
    0.8594   -0.8227   -1.8187 H   0  0  0  0  0  0  0  0  0  0  0  0
    0.8032   -0.5162    0.7207 H   0  0  0  0  0  0  0  0  0  0  0  0
    2.5086    0.0032    0.6456 H   0  0  0  0  0  0  0  0  0  0  0  0
    1.1615   -4.0954   -0.1527 H   0  0  0  0  0  0  0  0  0  0  0  0
    0.0073   -2.7191   -0.0742 H   0  0  0  0  0  0  0  0  0  0  0  0
    1.0960   -2.9383   -1.5042 H   0  0  0  0  0  0  0  0  0  0  0  0
    2.7379   -1.9550    2.1404 H   0  0  0  0  0  0  0  0  0  0  0  0
    3.6586   -3.7260   -0.0804 H   0  0  0  0  0  0  0  0  0  0  0  0
    5.3406   -2.3764   -1.0417 H   0  0  0  0  0  0  0  0  0  0  0  0
    4.2930   -0.8411   -0.8702 H   0  0  0  0  0  0  0  0  0  0  0  0
  1 17  1  0  0  0  0
  1 18  1  0  0  0  0
  1 19  1  0  0  0  0
  2  1  1  0  0  0  0
  3  2  1  0  0  0  0
  3 20  1  0  0  0  0
  3 21  1  0  0  0  0
  3 22  1  0  0  0  0
  4  2  2  0  0  0  0
  4 23  1  0  0  0  0
  5  4  1  0  0  0  0
  5 24  1  0  0  0  0
  5 25  1  0  0  0  0
  6  5  1  0  0  0  0
  6 26  1  0  0  0  0
  6 27  1  0  0  0  0
  7  6  1  0  0  0  0
  8  7  1  0  0  0  0
  8 28  1  0  0  0  0
  8 29  1  0  0  0  0
  8 30  1  0  0  0  0
  9  7  2  0  0  0  0
  9 31  1  0  0  0  0
 10  9  1  0  0  0  0
 10 32  1  0  0  0  0
 10 33  1  0  0  0  0
 11 10  1  0  0  0  0
 11 34  1  0  0  0  0
 11 35  1  0  0  0  0
 12 11  1  6  0  0  0
 13 12  1  0  0  0  0
 13 36  1  0  0  0  0
 13 37  1  0  0  0  0
 13 38  1  0  0  0  0
 14 12  1  0  0  0  0
 14 39  1  0  0  0  0
 15 12  1  0  0  0  0
 15 40  1  0  0  0  0
 16 15  2  0  0  0  0
 16 41  1  0  0  0  0
 16 42  1  0  0  0  0
M  END
>  <MOL Chiral Flag>
0

>  <energy>
34.627388363591422

$$$$
