>219.sdf
 OpenBabel10052220403D

 58 61  0  0  0  0  0  0  0  0999 V2000
   10.9900   -1.1940   -5.3927 Cl  0  0  0  0  0  0  0  0  0  0  0  0
    9.3775   -1.0892   -4.7110 C   0  0  0  0  0  0  0  0  0  0  0  0
    8.2802   -0.8660   -5.5416 C   0  0  0  0  0  0  0  0  0  0  0  0
    6.9904   -0.7723   -5.0060 C   0  0  0  0  0  0  0  0  0  0  0  0
    5.6575   -0.4750   -6.1194 Cl  0  0  0  0  0  0  0  0  0  0  0  0
    6.7844   -0.9015   -3.6088 C   0  0  0  0  0  0  0  0  0  0  0  0
    5.4571   -0.7621   -3.0709 N   0  0  0  0  0  0  0  0  0  0  0  0
    5.1319   -0.7458   -1.6571 C   0  0  0  0  0  0  0  0  0  0  0  0
    4.0044   -1.6900   -1.3351 C   0  0  0  0  0  0  0  0  0  0  0  0
    4.1409   -2.8926   -1.5077 O   0  0  0  0  0  0  0  0  0  0  0  0
    2.8701   -1.1888   -0.7820 N   0  0  0  0  0  0  0  0  0  0  0  0
    1.7877   -1.9985   -0.2709 C   0  0  0  0  0  0  0  0  0  0  0  0
    0.9617   -2.7427   -1.3445 C   0  0  0  0  0  0  0  0  0  0  0  0
   -0.2199   -3.2856   -0.6863 N   0  0  0  0  0  0  0  0  0  0  0  0
   -1.0984   -2.3916    0.0077 C   0  0  0  0  0  0  0  0  0  0  0  0
   -1.4787   -1.1865   -0.6063 C   0  0  0  0  0  0  0  0  0  0  0  0
   -2.2113   -0.2303    0.0973 C   0  0  0  0  0  0  0  0  0  0  0  0
   -2.5573    1.0472   -0.5686 C   0  0  0  0  0  0  0  0  0  0  0  0
   -3.0469    2.1026    0.1103 C   0  0  0  0  0  0  0  0  0  0  0  0
   -3.3705    3.4183   -0.5177 C   0  0  0  0  0  0  0  0  0  0  0  0
   -3.3892    3.6194   -1.9173 C   0  0  0  0  0  0  0  0  0  0  0  0
   -3.6992    4.8766   -2.4458 C   0  0  0  0  0  0  0  0  0  0  0  0
   -3.9858    5.9454   -1.5958 C   0  0  0  0  0  0  0  0  0  0  0  0
   -3.9687    5.7604   -0.2127 C   0  0  0  0  0  0  0  0  0  0  0  0
   -3.6681    4.5049    0.3244 C   0  0  0  0  0  0  0  0  0  0  0  0
   -2.5545   -0.4646    1.3928 N   0  0  0  0  0  0  0  0  0  0  0  0
   -2.2165   -1.6175    2.0299 C   0  0  0  0  0  0  0  0  0  0  0  0
   -2.5578   -1.7857    3.3767 C   0  0  0  0  0  0  0  0  0  0  0  0
   -2.1763   -2.9415    4.0594 C   0  0  0  0  0  0  0  0  0  0  0  0
   -1.4534   -3.9379    3.4023 C   0  0  0  0  0  0  0  0  0  0  0  0
   -1.1033   -3.7861    2.0580 C   0  0  0  0  0  0  0  0  0  0  0  0
   -1.4822   -2.6251    1.3509 C   0  0  0  0  0  0  0  0  0  0  0  0
    7.9155   -1.1330   -2.7844 C   0  0  0  0  0  0  0  0  0  0  0  0
    9.1932   -1.2245   -3.3376 C   0  0  0  0  0  0  0  0  0  0  0  0
    8.4291   -0.7585   -6.6084 H   0  0  0  0  0  0  0  0  0  0  0  0
    4.6815   -0.5494   -3.7138 H   0  0  0  0  0  0  0  0  0  0  0  0
    4.8322    0.2914   -1.3967 H   0  0  0  0  0  0  0  0  0  0  0  0
    5.9691   -1.0009   -0.9943 H   0  0  0  0  0  0  0  0  0  0  0  0
    2.8047   -0.1710   -0.6268 H   0  0  0  0  0  0  0  0  0  0  0  0
    1.1217   -1.2909    0.2639 H   0  0  0  0  0  0  0  0  0  0  0  0
    2.1657   -2.7182    0.4881 H   0  0  0  0  0  0  0  0  0  0  0  0
    0.6630   -2.0623   -2.1677 H   0  0  0  0  0  0  0  0  0  0  0  0
    1.5698   -3.5613   -1.7853 H   0  0  0  0  0  0  0  0  0  0  0  0
   -0.2402   -4.2977   -0.5025 H   0  0  0  0  0  0  0  0  0  0  0  0
   -1.1853   -0.9788   -1.6267 H   0  0  0  0  0  0  0  0  0  0  0  0
   -2.3591    1.1223   -1.6296 H   0  0  0  0  0  0  0  0  0  0  0  0
   -3.1824    2.0127    1.1847 H   0  0  0  0  0  0  0  0  0  0  0  0
   -3.1793    2.8197   -2.6097 H   0  0  0  0  0  0  0  0  0  0  0  0
   -3.7174    5.0215   -3.5185 H   0  0  0  0  0  0  0  0  0  0  0  0
   -4.2219    6.9174   -2.0094 H   0  0  0  0  0  0  0  0  0  0  0  0
   -4.1882    6.5911    0.4453 H   0  0  0  0  0  0  0  0  0  0  0  0
   -3.6565    4.3818    1.4005 H   0  0  0  0  0  0  0  0  0  0  0  0
   -3.1044   -1.0108    3.8997 H   0  0  0  0  0  0  0  0  0  0  0  0
   -2.4322   -3.0613    5.1041 H   0  0  0  0  0  0  0  0  0  0  0  0
   -1.1520   -4.8280    3.9394 H   0  0  0  0  0  0  0  0  0  0  0  0
   -0.5286   -4.5731    1.5951 H   0  0  0  0  0  0  0  0  0  0  0  0
    7.8476   -1.2398   -1.7179 H   0  0  0  0  0  0  0  0  0  0  0  0
   10.0446   -1.3960   -2.6907 H   0  0  0  0  0  0  0  0  0  0  0  0
  2  1  1  0  0  0  0
  3  2  2  0  0  0  0
  3 35  1  0  0  0  0
  4  3  1  0  0  0  0
  5  4  1  0  0  0  0
  6  4  2  0  0  0  0
  7  6  1  0  0  0  0
  7 36  1  0  0  0  0
  8  7  1  0  0  0  0
  8 37  1  0  0  0  0
  8 38  1  0  0  0  0
  9  8  1  0  0  0  0
 10  9  2  0  0  0  0
 11  9  1  0  0  0  0
 11 39  1  0  0  0  0
 12 11  1  0  0  0  0
 12 40  1  0  0  0  0
 12 41  1  0  0  0  0
 13 12  1  0  0  0  0
 13 42  1  0  0  0  0
 13 43  1  0  0  0  0
 14 13  1  0  0  0  0
 14 44  1  0  0  0  0
 15 14  1  0  0  0  0
 16 15  2  0  0  0  0
 16 45  1  0  0  0  0
 17 16  1  0  0  0  0
 18 17  1  0  0  0  0
 18 46  1  0  0  0  0
 19 18  2  0  0  0  0
 19 47  1  0  0  0  0
 20 19  1  0  0  0  0
 21 20  2  0  0  0  0
 21 48  1  0  0  0  0
 22 21  1  0  0  0  0
 22 49  1  0  0  0  0
 23 22  2  0  0  0  0
 23 50  1  0  0  0  0
 24 23  1  0  0  0  0
 24 51  1  0  0  0  0
 25 24  2  0  0  0  0
 25 20  1  0  0  0  0
 25 52  1  0  0  0  0
 26 17  2  0  0  0  0
 27 26  1  0  0  0  0
 28 27  2  0  0  0  0
 28 53  1  0  0  0  0
 29 28  1  0  0  0  0
 29 54  1  0  0  0  0
 30 29  2  0  0  0  0
 30 55  1  0  0  0  0
 31 30  1  0  0  0  0
 31 56  1  0  0  0  0
 32 31  2  0  0  0  0
 32 15  1  0  0  0  0
 32 27  1  0  0  0  0
 33  6  1  0  0  0  0
 33 57  1  0  0  0  0
 34 33  2  0  0  0  0
 34  2  1  0  0  0  0
 34 58  1  0  0  0  0
M  END
>  <MOL Chiral Flag>
0

>  <energy>
124.97882931281011

$$$$
