>222.sdf
 OpenBabel10052220413D

 41 44  0  0  0  0  0  0  0  0999 V2000
   -2.2548   -4.1189    1.4451 C   0  0  0  0  0  0  0  0  0  0  0  0
   -2.3945   -3.2959    0.1576 C   0  0  0  0  0  0  0  0  0  0  0  0
   -3.1875   -4.0887   -0.8864 C   0  0  0  0  0  0  0  0  0  0  0  0
   -3.1059   -2.1348    0.4624 O   0  0  0  0  0  0  0  0  0  0  0  0
   -2.6080   -0.8725    0.4354 C   0  0  0  0  0  0  0  0  0  0  0  0
   -3.3996    0.1910    0.8719 C   0  0  0  0  0  0  0  0  0  0  0  0
   -2.8792    1.4941    0.9317 C   0  0  0  0  0  0  0  0  0  0  0  0
   -3.6546    2.5028    1.3826 O   0  0  0  0  0  0  0  0  0  0  0  0
   -1.5344    1.7278    0.5480 C   0  0  0  0  0  0  0  0  0  0  0  0
   -0.9194    2.9939    0.6537 C   0  0  0  0  0  0  0  0  0  0  0  0
   -1.5317    3.9636    1.0629 O   0  0  0  0  0  0  0  0  0  0  0  0
    0.4288    3.1283    0.3152 C   0  0  0  0  0  0  0  0  0  0  0  0
    1.1361    2.0131   -0.1624 C   0  0  0  0  0  0  0  0  0  0  0  0
    0.5144    0.8437   -0.2837 O   0  0  0  0  0  0  0  0  0  0  0  0
   -0.7552    0.6521    0.0662 C   0  0  0  0  0  0  0  0  0  0  0  0
   -1.2966   -0.6418    0.0087 C   0  0  0  0  0  0  0  0  0  0  0  0
   -0.4949   -1.7866   -0.4479 C   0  0  0  0  0  0  0  0  0  0  0  0
   -0.9953   -3.0237   -0.3807 C   0  0  0  0  0  0  0  0  0  0  0  0
    2.5856    2.0695   -0.4858 C   0  0  0  0  0  0  0  0  0  0  0  0
    3.1367    1.1145   -1.3597 C   0  0  0  0  0  0  0  0  0  0  0  0
    4.5047    1.1196   -1.6455 C   0  0  0  0  0  0  0  0  0  0  0  0
    5.3458    2.0586   -1.0428 C   0  0  0  0  0  0  0  0  0  0  0  0
    6.6686    2.0325   -1.3033 O   0  0  0  0  0  0  0  0  0  0  0  0
    4.8085    3.0109   -0.1661 C   0  0  0  0  0  0  0  0  0  0  0  0
    3.4369    3.0257    0.1039 C   0  0  0  0  0  0  0  0  0  0  0  0
   -1.7134   -5.0710    1.2553 H   0  0  0  0  0  0  0  0  0  0  0  0
   -3.2532   -4.3533    1.8716 H   0  0  0  0  0  0  0  0  0  0  0  0
   -1.6840   -3.5375    2.2031 H   0  0  0  0  0  0  0  0  0  0  0  0
   -4.2014   -4.3266   -0.4975 H   0  0  0  0  0  0  0  0  0  0  0  0
   -2.6736   -5.0452   -1.1269 H   0  0  0  0  0  0  0  0  0  0  0  0
   -3.2983   -3.4979   -1.8201 H   0  0  0  0  0  0  0  0  0  0  0  0
   -4.4166    0.0010    1.1936 H   0  0  0  0  0  0  0  0  0  0  0  0
   -4.5718    2.3601    1.6578 H   0  0  0  0  0  0  0  0  0  0  0  0
    0.9059    4.0941    0.4185 H   0  0  0  0  0  0  0  0  0  0  0  0
    0.5153   -1.6404   -0.8198 H   0  0  0  0  0  0  0  0  0  0  0  0
   -0.3760   -3.8592   -0.6959 H   0  0  0  0  0  0  0  0  0  0  0  0
    2.5050    0.3703   -1.8297 H   0  0  0  0  0  0  0  0  0  0  0  0
    4.9133    0.3845   -2.3274 H   0  0  0  0  0  0  0  0  0  0  0  0
    7.2821    2.6513   -0.8821 H   0  0  0  0  0  0  0  0  0  0  0  0
    5.4548    3.7339    0.3154 H   0  0  0  0  0  0  0  0  0  0  0  0
    3.0576    3.7569    0.8032 H   0  0  0  0  0  0  0  0  0  0  0  0
  1 26  1  0  0  0  0
  1 27  1  0  0  0  0
  1 28  1  0  0  0  0
  2  1  1  0  0  0  0
  3  2  1  0  0  0  0
  3 29  1  0  0  0  0
  3 30  1  0  0  0  0
  3 31  1  0  0  0  0
  4  2  1  0  0  0  0
  5  4  1  0  0  0  0
  6  5  2  0  0  0  0
  6 32  1  0  0  0  0
  7  6  1  0  0  0  0
  8  7  1  0  0  0  0
  8 33  1  0  0  0  0
  9  7  2  0  0  0  0
 10  9  1  0  0  0  0
 11 10  2  0  0  0  0
 12 10  1  0  0  0  0
 12 34  1  0  0  0  0
 13 12  2  0  0  0  0
 14 13  1  0  0  0  0
 15 14  1  0  0  0  0
 15  9  1  0  0  0  0
 16 15  2  0  0  0  0
 16  5  1  0  0  0  0
 17 16  1  0  0  0  0
 17 35  1  0  0  0  0
 18 17  2  0  0  0  0
 18  2  1  0  0  0  0
 18 36  1  0  0  0  0
 19 13  1  0  0  0  0
 20 19  2  0  0  0  0
 20 37  1  0  0  0  0
 21 20  1  0  0  0  0
 21 38  1  0  0  0  0
 22 21  2  0  0  0  0
 23 22  1  0  0  0  0
 23 39  1  0  0  0  0
 24 22  1  0  0  0  0
 24 40  1  0  0  0  0
 25 24  2  0  0  0  0
 25 19  1  0  0  0  0
 25 41  1  0  0  0  0
M  END
>  <MOL Chiral Flag>
0

>  <energy>
72.129800115127466

$$$$
