>224.sdf
 OpenBabel10052220423D

 58 62  0  0  0  0  0  0  0  0999 V2000
    2.6529   -5.2251   -2.2407 Cl  0  0  0  0  0  0  0  0  0  0  0  0
    1.9754   -3.9247   -1.2781 C   0  0  0  0  0  0  0  0  0  0  0  0
    1.7169   -2.6766   -1.8594 C   0  0  0  0  0  0  0  0  0  0  0  0
    1.1893   -1.6331   -1.0863 C   0  0  0  0  0  0  0  0  0  0  0  0
    0.8858   -1.8491    0.2663 C   0  0  0  0  0  0  0  0  0  0  0  0
    1.1494   -3.1067    0.8399 C   0  0  0  0  0  0  0  0  0  0  0  0
    1.6990   -4.1344    0.0743 C   0  0  0  0  0  0  0  0  0  0  0  0
    0.3319   -0.7757    1.1272 C   0  0  0  0  0  0  0  0  0  0  0  0
   -0.9078   -0.9342    1.7975 C   0  0  0  0  0  0  0  0  0  0  0  0
   -1.8761   -2.0436    1.4105 C   0  0  0  0  0  0  0  0  0  0  0  0
   -2.3723   -1.7982    0.0239 N   0  3  0  0  0  0  0  0  0  0  0  0
   -3.1234   -2.9620   -0.4969 C   0  0  0  0  0  0  0  0  0  0  0  0
   -3.5610   -2.7146   -1.9554 C   0  0  0  0  0  0  0  0  0  0  0  0
   -4.4325   -1.4587   -2.0366 C   0  0  0  0  0  0  0  0  0  0  0  0
   -3.6649   -0.2673   -1.4668 C   0  0  0  0  0  0  0  0  0  0  0  0
   -3.2201   -0.5748   -0.0298 C   0  0  0  0  0  0  0  0  0  0  0  0
   -1.3129    0.0269    2.7333 C   0  0  0  0  0  0  0  0  0  0  0  0
   -0.5380    1.1621    2.9590 C   0  0  0  0  0  0  0  0  0  0  0  0
    0.6360    1.3836    2.2217 C   0  0  0  0  0  0  0  0  0  0  0  0
    1.3282    2.6230    2.3720 N   0  0  0  0  0  0  0  0  0  0  0  0
    1.5520    3.3815    1.1895 C   0  0  0  0  0  0  0  0  0  0  0  0
    0.5493    4.2733    0.7853 C   0  0  0  0  0  0  0  0  0  0  0  0
    0.6915    5.0013   -0.3914 C   0  0  0  0  0  0  0  0  0  0  0  0
    1.8052    4.8566   -1.1521 N   0  0  0  0  0  0  0  0  0  0  0  0
    2.8122    4.0162   -0.7931 C   0  0  0  0  0  0  0  0  0  0  0  0
    3.9433    3.9110   -1.6067 C   0  0  0  0  0  0  0  0  0  0  0  0
    4.9910    3.0614   -1.2453 C   0  0  0  0  0  0  0  0  0  0  0  0
    6.4075    2.9384   -2.2724 Cl  0  0  0  0  0  0  0  0  0  0  0  0
    4.9131    2.3152   -0.0645 C   0  0  0  0  0  0  0  0  0  0  0  0
    3.7838    2.4081    0.7576 C   0  0  0  0  0  0  0  0  0  0  0  0
    2.7165    3.2521    0.3984 C   0  0  0  0  0  0  0  0  0  0  0  0
    1.0697    0.4020    1.3112 C   0  0  0  0  0  0  0  0  0  0  0  0
    1.9276   -2.5161   -2.9083 H   0  0  0  0  0  0  0  0  0  0  0  0
    0.9927   -0.6722   -1.5437 H   0  0  0  0  0  0  0  0  0  0  0  0
    0.9514   -3.2798    1.8917 H   0  0  0  0  0  0  0  0  0  0  0  0
    1.9113   -5.0918    0.5348 H   0  0  0  0  0  0  0  0  0  0  0  0
   -2.7465   -2.0720    2.1045 H   0  0  0  0  0  0  0  0  0  0  0  0
   -1.3813   -3.0313    1.4983 H   0  0  0  0  0  0  0  0  0  0  0  0
   -1.5541   -1.6589   -0.6120 H   0  0  0  0  0  0  0  0  0  0  0  0
   -4.0195   -3.1598    0.1331 H   0  0  0  0  0  0  0  0  0  0  0  0
   -2.4788   -3.8689   -0.4819 H   0  0  0  0  0  0  0  0  0  0  0  0
   -4.1265   -3.5888   -2.3413 H   0  0  0  0  0  0  0  0  0  0  0  0
   -2.6590   -2.5756   -2.5931 H   0  0  0  0  0  0  0  0  0  0  0  0
   -5.3632   -1.6146   -1.4483 H   0  0  0  0  0  0  0  0  0  0  0  0
   -4.7163   -1.2539   -3.0917 H   0  0  0  0  0  0  0  0  0  0  0  0
   -4.3082    0.6395   -1.4805 H   0  0  0  0  0  0  0  0  0  0  0  0
   -2.7678   -0.0653   -2.0931 H   0  0  0  0  0  0  0  0  0  0  0  0
   -4.1191   -0.6998    0.6163 H   0  0  0  0  0  0  0  0  0  0  0  0
   -2.6609    0.3148    0.3308 H   0  0  0  0  0  0  0  0  0  0  0  0
   -2.2582   -0.0763    3.2516 H   0  0  0  0  0  0  0  0  0  0  0  0
   -0.8917    1.9089    3.6589 H   0  0  0  0  0  0  0  0  0  0  0  0
    0.9851    3.1885    3.1642 H   0  0  0  0  0  0  0  0  0  0  0  0
   -0.3514    4.3829    1.3778 H   0  0  0  0  0  0  0  0  0  0  0  0
   -0.0929    5.6767   -0.7055 H   0  0  0  0  0  0  0  0  0  0  0  0
    4.0080    4.4923   -2.5189 H   0  0  0  0  0  0  0  0  0  0  0  0
    5.7297    1.6629    0.2165 H   0  0  0  0  0  0  0  0  0  0  0  0
    3.7488    1.8250    1.6691 H   0  0  0  0  0  0  0  0  0  0  0  0
    1.9884    0.5311    0.7633 H   0  0  0  0  0  0  0  0  0  0  0  0
  2  1  1  0  0  0  0
  3  2  2  0  0  0  0
  3 33  1  0  0  0  0
  4  3  1  0  0  0  0
  4 34  1  0  0  0  0
  5  4  2  0  0  0  0
  6  5  1  0  0  0  0
  6 35  1  0  0  0  0
  7  6  2  0  0  0  0
  7  2  1  0  0  0  0
  7 36  1  0  0  0  0
  8  5  1  0  0  0  0
  9  8  2  0  0  0  0
 10  9  1  0  0  0  0
 10 37  1  0  0  0  0
 10 38  1  0  0  0  0
 11 10  1  0  0  0  0
 11 39  1  0  0  0  0
 12 11  1  0  0  0  0
 12 40  1  0  0  0  0
 12 41  1  0  0  0  0
 13 12  1  0  0  0  0
 13 42  1  0  0  0  0
 13 43  1  0  0  0  0
 14 13  1  0  0  0  0
 14 44  1  0  0  0  0
 14 45  1  0  0  0  0
 15 14  1  0  0  0  0
 15 46  1  0  0  0  0
 15 47  1  0  0  0  0
 16 15  1  0  0  0  0
 16 11  1  0  0  0  0
 16 48  1  0  0  0  0
 16 49  1  0  0  0  0
 17  9  1  0  0  0  0
 17 50  1  0  0  0  0
 18 17  2  0  0  0  0
 18 51  1  0  0  0  0
 19 18  1  0  0  0  0
 20 19  1  0  0  0  0
 20 52  1  0  0  0  0
 21 20  1  0  0  0  0
 22 21  2  0  0  0  0
 22 53  1  0  0  0  0
 23 22  1  0  0  0  0
 23 54  1  0  0  0  0
 24 23  2  0  0  0  0
 25 24  1  0  0  0  0
 26 25  2  0  0  0  0
 26 55  1  0  0  0  0
 27 26  1  0  0  0  0
 28 27  1  0  0  0  0
 29 27  2  0  0  0  0
 29 56  1  0  0  0  0
 30 29  1  0  0  0  0
 30 57  1  0  0  0  0
 31 30  2  0  0  0  0
 31 21  1  0  0  0  0
 31 25  1  0  0  0  0
 32 19  2  0  0  0  0
 32  8  1  0  0  0  0
 32 58  1  0  0  0  0
M  CHG  1  11   1
M  END
>  <MOL Chiral Flag>
0

>  <energy>
73.791965721016496

$$$$
