>23.sdf
 OpenBabel10052218003D

 20 21  0  0  0  0  0  0  0  0999 V2000
   -4.6032   -0.6068    0.1510 Br  0  0  0  0  0  0  0  0  0  0  0  0
   -2.6911   -0.5129    0.0737 C   0  0  0  0  0  0  0  0  0  0  0  0
   -2.0514    0.7145    0.2028 C   0  0  0  0  0  0  0  0  0  0  0  0
   -0.6532    0.7912    0.1454 C   0  0  0  0  0  0  0  0  0  0  0  0
    0.1139   -0.3947   -0.0496 C   0  0  0  0  0  0  0  0  0  0  0  0
   -0.5592   -1.5891   -0.1789 N   0  0  0  0  0  0  0  0  0  0  0  0
   -1.9297   -1.6641   -0.1166 C   0  0  0  0  0  0  0  0  0  0  0  0
   -2.4813   -2.7457   -0.2328 O   0  0  0  0  0  0  0  0  0  0  0  0
    1.5536   -0.2874   -0.1218 C   0  0  0  0  0  0  0  0  0  0  0  0
    2.1333    0.9963    0.0099 C   0  0  0  0  0  0  0  0  0  0  0  0
    1.3571    2.1322    0.2100 C   0  0  0  0  0  0  0  0  0  0  0  0
   -0.0249    2.0354    0.2747 C   0  0  0  0  0  0  0  0  0  0  0  0
    2.4462   -1.4047   -0.3237 N   0  0  0  0  0  0  0  0  0  0  0  0
    3.6011   -1.2066   -0.5524 O   0  0  0  0  0  0  0  0  0  0  0  0
    2.0762   -2.5307   -0.2073 O   0  0  0  0  0  0  0  0  0  0  0  0
   -2.6465    1.6093    0.3451 H   0  0  0  0  0  0  0  0  0  0  0  0
   -0.0766   -2.4893   -0.3370 H   0  0  0  0  0  0  0  0  0  0  0  0
    3.2084    1.1182   -0.0318 H   0  0  0  0  0  0  0  0  0  0  0  0
    1.8360    3.0982    0.3146 H   0  0  0  0  0  0  0  0  0  0  0  0
   -0.6086    2.9368    0.4248 H   0  0  0  0  0  0  0  0  0  0  0  0
  2  1  1  0  0  0  0
  3  2  2  0  0  0  0
  3 16  1  0  0  0  0
  4  3  1  0  0  0  0
  5  4  2  0  0  0  0
  6  5  1  0  0  0  0
  6 17  1  0  0  0  0
  7  6  1  0  0  0  0
  7  2  1  0  0  0  0
  8  7  2  0  0  0  0
  9  5  1  0  0  0  0
 10  9  2  0  0  0  0
 10 18  1  0  0  0  0
 11 10  1  0  0  0  0
 11 19  1  0  0  0  0
 12 11  2  0  0  0  0
 12  4  1  0  0  0  0
 12 20  1  0  0  0  0
 13  9  1  0  0  0  0
 14 13  2  0  0  0  0
 15 13  2  0  0  0  0
M  END
>  <MOL Chiral Flag>
0

>  <energy>
54.808725656143174

$$$$
