>230.sdf
 OpenBabel10052220463D

 64 69  0  0  0  0  0  0  0  0999 V2000
   -5.4704   -6.3631   -7.9848 C   0  0  0  0  0  0  0  0  0  0  0  0
   -5.7396   -6.3601   -6.6316 O   0  0  0  0  0  0  0  0  0  0  0  0
   -4.9178   -5.8656   -5.6675 C   0  0  0  0  0  0  0  0  0  0  0  0
   -3.6675   -5.2923   -5.9606 C   0  0  0  0  0  0  0  0  0  0  0  0
   -2.8563   -4.7937   -4.9351 C   0  0  0  0  0  0  0  0  0  0  0  0
   -3.2704   -4.8565   -3.5824 C   0  0  0  0  0  0  0  0  0  0  0  0
   -4.5336   -5.4383   -3.3098 C   0  0  0  0  0  0  0  0  0  0  0  0
   -5.3371   -5.9312   -4.3399 C   0  0  0  0  0  0  0  0  0  0  0  0
   -2.4391   -4.3344   -2.5128 N   0  0  0  0  0  0  0  0  0  0  0  0
   -2.6186   -4.7406   -1.1198 C   0  0  0  0  0  0  0  0  0  0  0  0
   -2.9970   -3.5078   -0.2996 C   0  0  0  0  0  0  0  0  0  0  0  0
   -1.9740   -2.4793   -0.5037 N   0  0  0  0  0  0  0  0  0  0  0  0
   -1.7612   -2.0804   -1.8972 C   0  0  0  0  0  0  0  0  0  0  0  0
   -1.4127   -3.3147   -2.7414 C   0  0  0  0  0  0  0  0  0  0  0  0
   -1.3296   -1.9187    0.5881 C   0  0  0  0  0  0  0  0  0  0  0  0
   -1.7019   -2.2322    1.7119 O   0  0  0  0  0  0  0  0  0  0  0  0
   -0.2165   -0.9127    0.5127 C   0  0  0  0  0  0  0  0  0  0  0  0
    0.6177   -0.8283   -0.5703 N   0  0  0  0  0  0  0  0  0  0  0  0
    1.6471    0.0718   -0.6692 C   0  0  0  0  0  0  0  0  0  0  0  0
    1.8791    0.9374    0.4352 C   0  0  0  0  0  0  0  0  0  0  0  0
    2.8548    1.8738    0.6741 N   0  0  0  0  0  0  0  0  0  0  0  0
    3.9903    2.2619   -0.1707 C   0  0  0  0  0  0  0  0  0  0  0  0
    2.6007    2.3640    1.9199 C   0  0  0  0  0  0  0  0  0  0  0  0
    1.5010    1.7458    2.4662 C   0  0  0  0  0  0  0  0  0  0  0  0
    1.0304    2.0560    3.7413 C   0  0  0  0  0  0  0  0  0  0  0  0
    1.7108    3.0414    4.4749 C   0  0  0  0  0  0  0  0  0  0  0  0
    2.8395    3.6858    3.9248 C   0  0  0  0  0  0  0  0  0  0  0  0
    3.2974    3.3488    2.6373 C   0  0  0  0  0  0  0  0  0  0  0  0
    1.0562    0.8377    1.5395 C   0  0  0  0  0  0  0  0  0  0  0  0
    0.0102   -0.0670    1.6148 C   0  0  0  0  0  0  0  0  0  0  0  0
    2.4460    0.0537   -1.9125 C   0  0  0  0  0  0  0  0  0  0  0  0
    2.9938   -1.1599   -2.3623 C   0  0  0  0  0  0  0  0  0  0  0  0
    3.7468   -1.2012   -3.5399 C   0  0  0  0  0  0  0  0  0  0  0  0
    3.9366   -0.0383   -4.2902 C   0  0  0  0  0  0  0  0  0  0  0  0
    3.3634    1.1644   -3.8701 C   0  0  0  0  0  0  0  0  0  0  0  0
    2.6156    1.2099   -2.6892 C   0  0  0  0  0  0  0  0  0  0  0  0
   -4.5548   -6.9561   -8.1941 H   0  0  0  0  0  0  0  0  0  0  0  0
   -5.3492   -5.3230   -8.3555 H   0  0  0  0  0  0  0  0  0  0  0  0
   -6.3221   -6.8304   -8.5207 H   0  0  0  0  0  0  0  0  0  0  0  0
   -3.3121   -5.2293   -6.9802 H   0  0  0  0  0  0  0  0  0  0  0  0
   -1.9017   -4.3823   -5.2185 H   0  0  0  0  0  0  0  0  0  0  0  0
   -4.9317   -5.4998   -2.3111 H   0  0  0  0  0  0  0  0  0  0  0  0
   -6.3008   -6.3649   -4.1020 H   0  0  0  0  0  0  0  0  0  0  0  0
   -3.3640   -5.5395   -0.9699 H   0  0  0  0  0  0  0  0  0  0  0  0
   -1.6583   -5.1535   -0.7399 H   0  0  0  0  0  0  0  0  0  0  0  0
   -3.1210   -3.8081    0.7623 H   0  0  0  0  0  0  0  0  0  0  0  0
   -3.9785   -3.1258   -0.6570 H   0  0  0  0  0  0  0  0  0  0  0  0
   -1.0252   -1.2858   -2.0602 H   0  0  0  0  0  0  0  0  0  0  0  0
   -2.7194   -1.6684   -2.2845 H   0  0  0  0  0  0  0  0  0  0  0  0
   -1.3386   -2.9785   -3.7902 H   0  0  0  0  0  0  0  0  0  0  0  0
   -0.4219   -3.7113   -2.4303 H   0  0  0  0  0  0  0  0  0  0  0  0
    4.6852    2.9423    0.3533 H   0  0  0  0  0  0  0  0  0  0  0  0
    3.6548    2.8296   -1.0511 H   0  0  0  0  0  0  0  0  0  0  0  0
    4.5729    1.3623   -0.4588 H   0  0  0  0  0  0  0  0  0  0  0  0
    0.1661    1.5556    4.1580 H   0  0  0  0  0  0  0  0  0  0  0  0
    1.3685    3.3067    5.4668 H   0  0  0  0  0  0  0  0  0  0  0  0
    3.3572    4.4440    4.4979 H   0  0  0  0  0  0  0  0  0  0  0  0
    4.1620    3.8536    2.2345 H   0  0  0  0  0  0  0  0  0  0  0  0
   -0.6088   -0.1150    2.5020 H   0  0  0  0  0  0  0  0  0  0  0  0
    2.8552   -2.0682   -1.7882 H   0  0  0  0  0  0  0  0  0  0  0  0
    4.1828   -2.1350   -3.8704 H   0  0  0  0  0  0  0  0  0  0  0  0
    4.5176   -0.0717   -5.2028 H   0  0  0  0  0  0  0  0  0  0  0  0
    3.4930    2.0607   -4.4627 H   0  0  0  0  0  0  0  0  0  0  0  0
    2.1486    2.1394   -2.3938 H   0  0  0  0  0  0  0  0  0  0  0  0
  1 37  1  0  0  0  0
  1 38  1  0  0  0  0
  1 39  1  0  0  0  0
  2  1  1  0  0  0  0
  3  2  1  0  0  0  0
  4  3  2  0  0  0  0
  4 40  1  0  0  0  0
  5  4  1  0  0  0  0
  5 41  1  0  0  0  0
  6  5  2  0  0  0  0
  7  6  1  0  0  0  0
  7 42  1  0  0  0  0
  8  7  2  0  0  0  0
  8  3  1  0  0  0  0
  8 43  1  0  0  0  0
  9  6  1  0  0  0  0
 10  9  1  0  0  0  0
 10 44  1  0  0  0  0
 10 45  1  0  0  0  0
 11 10  1  0  0  0  0
 11 46  1  0  0  0  0
 11 47  1  0  0  0  0
 12 11  1  0  0  0  0
 13 12  1  0  0  0  0
 13 48  1  0  0  0  0
 13 49  1  0  0  0  0
 14 13  1  0  0  0  0
 14  9  1  0  0  0  0
 14 50  1  0  0  0  0
 14 51  1  0  0  0  0
 15 12  1  0  0  0  0
 16 15  2  0  0  0  0
 17 15  1  0  0  0  0
 18 17  2  0  0  0  0
 19 18  1  0  0  0  0
 20 19  2  0  0  0  0
 21 20  1  0  0  0  0
 22 21  1  0  0  0  0
 22 52  1  0  0  0  0
 22 53  1  0  0  0  0
 22 54  1  0  0  0  0
 23 21  1  0  0  0  0
 24 23  2  0  0  0  0
 25 24  1  0  0  0  0
 25 55  1  0  0  0  0
 26 25  2  0  0  0  0
 26 56  1  0  0  0  0
 27 26  1  0  0  0  0
 27 57  1  0  0  0  0
 28 27  2  0  0  0  0
 28 23  1  0  0  0  0
 28 58  1  0  0  0  0
 29 24  1  0  0  0  0
 29 20  1  0  0  0  0
 30 29  2  0  0  0  0
 30 17  1  0  0  0  0
 30 59  1  0  0  0  0
 31 19  1  0  0  0  0
 32 31  2  0  0  0  0
 32 60  1  0  0  0  0
 33 32  1  0  0  0  0
 33 61  1  0  0  0  0
 34 33  2  0  0  0  0
 34 62  1  0  0  0  0
 35 34  1  0  0  0  0
 35 63  1  0  0  0  0
 36 35  2  0  0  0  0
 36 31  1  0  0  0  0
 36 64  1  0  0  0  0
M  END
>  <MOL Chiral Flag>
0

>  <energy>
192.80600790530781

$$$$
