>233.sdf
 OpenBabel10052220483D

 56 58  0  0  0  0  0  0  0  0999 V2000
   -6.8458   -1.8976   -1.2203 N   0  3  0  0  0  0  0  0  0  0  0  0
   -6.1674   -1.5912    0.0397 C   0  0  0  0  0  0  0  0  0  0  0  0
   -4.6183   -1.4999   -0.0627 C   0  0  0  0  0  0  0  0  0  0  0  0
   -4.1120   -0.3559   -0.8797 N   0  3  0  0  0  0  0  0  0  0  0  0
   -3.8938   -0.7698   -2.2958 C   0  0  0  0  0  0  0  0  0  0  0  0
   -3.8887    0.4375   -3.2681 C   0  0  0  0  0  0  0  0  0  0  0  0
   -3.5058    0.0279   -4.6188 N   0  3  0  0  0  0  0  0  0  0  0  0
   -2.8301    0.1856   -0.3083 C   0  0  0  0  0  0  0  0  0  0  0  0
   -3.0736    1.1468    0.8844 C   0  0  0  0  0  0  0  0  0  0  0  0
   -1.8814    1.9305    1.3003 N   0  3  0  0  0  0  0  0  0  0  0  0
   -0.9544    1.2217    2.2039 C   0  0  0  0  0  0  0  0  0  0  0  0
   -0.0250    2.1990    2.9318 C   0  0  0  0  0  0  0  0  0  0  0  0
    0.9169    2.9924    2.2279 C   0  0  0  0  0  0  0  0  0  0  0  0
    1.7469    3.8706    2.9484 C   0  0  0  0  0  0  0  0  0  0  0  0
    1.6476    3.9672    4.3210 C   0  0  0  0  0  0  0  0  0  0  0  0
    0.7317    3.2091    5.0416 C   0  0  0  0  0  0  0  0  0  0  0  0
   -0.1054    2.3206    4.3449 C   0  0  0  0  0  0  0  0  0  0  0  0
    2.6157    4.9290    4.7869 C   0  0  0  0  0  0  0  0  0  0  0  0
    2.8995    5.3626    6.0860 C   0  0  0  0  0  0  0  0  0  0  0  0
    3.9151    6.3175    6.2662 C   0  0  0  0  0  0  0  0  0  0  0  0
    4.6225    6.8186    5.1555 C   0  0  0  0  0  0  0  0  0  0  0  0
    4.3166    6.3673    3.8583 C   0  0  0  0  0  0  0  0  0  0  0  0
    3.3036    5.4162    3.6972 C   0  0  0  0  0  0  0  0  0  0  0  0
    2.8194    4.7946    2.4037 C   0  0  0  0  0  0  0  0  0  0  0  0
   -6.7564   -1.1044   -1.8930 H   0  0  0  0  0  0  0  0  0  0  0  0
   -7.8654   -2.0337   -1.0246 H   0  0  0  0  0  0  0  0  0  0  0  0
   -6.4718   -2.7843   -1.6295 H   0  0  0  0  0  0  0  0  0  0  0  0
   -6.5746   -0.6448    0.4595 H   0  0  0  0  0  0  0  0  0  0  0  0
   -6.4073   -2.4029    0.7635 H   0  0  0  0  0  0  0  0  0  0  0  0
   -4.1907   -2.4679   -0.4109 H   0  0  0  0  0  0  0  0  0  0  0  0
   -4.2918   -1.3855    0.9922 H   0  0  0  0  0  0  0  0  0  0  0  0
   -4.8347    0.4028   -0.8711 H   0  0  0  0  0  0  0  0  0  0  0  0
   -4.6922   -1.4522   -2.6530 H   0  0  0  0  0  0  0  0  0  0  0  0
   -2.9406   -1.3385   -2.3773 H   0  0  0  0  0  0  0  0  0  0  0  0
   -3.1828    1.2264   -2.9440 H   0  0  0  0  0  0  0  0  0  0  0  0
   -4.9042    0.8936   -3.2883 H   0  0  0  0  0  0  0  0  0  0  0  0
   -2.5265   -0.3409   -4.6079 H   0  0  0  0  0  0  0  0  0  0  0  0
   -3.5376    0.8610   -5.2508 H   0  0  0  0  0  0  0  0  0  0  0  0
   -4.1568   -0.7041   -4.9828 H   0  0  0  0  0  0  0  0  0  0  0  0
   -2.3017    0.7954   -1.0646 H   0  0  0  0  0  0  0  0  0  0  0  0
   -2.1329   -0.6384   -0.0343 H   0  0  0  0  0  0  0  0  0  0  0  0
   -3.5263    0.6195    1.7513 H   0  0  0  0  0  0  0  0  0  0  0  0
   -3.8291    1.8817    0.5294 H   0  0  0  0  0  0  0  0  0  0  0  0
   -2.2537    2.7517    1.8325 H   0  0  0  0  0  0  0  0  0  0  0  0
   -1.3689    2.3018    0.4663 H   0  0  0  0  0  0  0  0  0  0  0  0
   -0.3576    0.4705    1.6421 H   0  0  0  0  0  0  0  0  0  0  0  0
   -1.5459    0.6714    2.9688 H   0  0  0  0  0  0  0  0  0  0  0  0
    1.0060    2.9241    1.1514 H   0  0  0  0  0  0  0  0  0  0  0  0
    0.6648    3.2980    6.1185 H   0  0  0  0  0  0  0  0  0  0  0  0
   -0.8181    1.7298    4.9044 H   0  0  0  0  0  0  0  0  0  0  0  0
    2.3557    4.9745    6.9366 H   0  0  0  0  0  0  0  0  0  0  0  0
    4.1567    6.6690    7.2622 H   0  0  0  0  0  0  0  0  0  0  0  0
    5.4051    7.5532    5.3021 H   0  0  0  0  0  0  0  0  0  0  0  0
    4.8595    6.7500    3.0040 H   0  0  0  0  0  0  0  0  0  0  0  0
    3.6327    4.2272    1.9045 H   0  0  0  0  0  0  0  0  0  0  0  0
    2.3956    5.5621    1.7224 H   0  0  0  0  0  0  0  0  0  0  0  0
  1 25  1  0  0  0  0
  1 26  1  0  0  0  0
  1 27  1  0  0  0  0
  2  1  1  0  0  0  0
  2 28  1  0  0  0  0
  2 29  1  0  0  0  0
  3  2  1  0  0  0  0
  3 30  1  0  0  0  0
  3 31  1  0  0  0  0
  4  3  1  0  0  0  0
  4 32  1  0  0  0  0
  5  4  1  0  0  0  0
  5 33  1  0  0  0  0
  5 34  1  0  0  0  0
  6  5  1  0  0  0  0
  6 35  1  0  0  0  0
  6 36  1  0  0  0  0
  7  6  1  0  0  0  0
  7 37  1  0  0  0  0
  7 38  1  0  0  0  0
  7 39  1  0  0  0  0
  8  4  1  0  0  0  0
  8 40  1  0  0  0  0
  8 41  1  0  0  0  0
  9  8  1  0  0  0  0
  9 42  1  0  0  0  0
  9 43  1  0  0  0  0
 10  9  1  0  0  0  0
 10 44  1  0  0  0  0
 10 45  1  0  0  0  0
 11 10  1  0  0  0  0
 11 46  1  0  0  0  0
 11 47  1  0  0  0  0
 12 11  1  0  0  0  0
 13 12  2  0  0  0  0
 13 48  1  0  0  0  0
 14 13  1  0  0  0  0
 15 14  2  0  0  0  0
 16 15  1  0  0  0  0
 16 49  1  0  0  0  0
 17 16  2  0  0  0  0
 17 12  1  0  0  0  0
 17 50  1  0  0  0  0
 18 15  1  0  0  0  0
 19 18  2  0  0  0  0
 19 51  1  0  0  0  0
 20 19  1  0  0  0  0
 20 52  1  0  0  0  0
 21 20  2  0  0  0  0
 21 53  1  0  0  0  0
 22 21  1  0  0  0  0
 22 54  1  0  0  0  0
 23 22  2  0  0  0  0
 23 18  1  0  0  0  0
 24 23  1  0  0  0  0
 24 14  1  0  0  0  0
 24 55  1  0  0  0  0
 24 56  1  0  0  0  0
M  CHG  4   1   1   4   1   7   1  10   1
M  END
>  <MOL Chiral Flag>
0

>  <energy>
117.20807889232348

$$$$
