>236.sdf
 OpenBabel10052220493D

 30 32  0  0  0  0  0  0  0  0999 V2000
   -2.7670    0.7461   -0.3604 O   0  0  0  0  0  0  0  0  0  0  0  0
   -2.7812   -0.6002   -0.2759 C   0  0  0  0  0  0  0  0  0  0  0  0
   -1.5719   -1.3292   -0.1739 C   0  0  0  0  0  0  0  0  0  0  0  0
   -1.6329   -2.7345   -0.0769 C   0  0  0  0  0  0  0  0  0  0  0  0
   -2.8541   -3.4036   -0.1039 C   0  0  0  0  0  0  0  0  0  0  0  0
   -4.0408   -2.6861   -0.2220 C   0  0  0  0  0  0  0  0  0  0  0  0
   -4.0101   -1.2913   -0.3000 C   0  0  0  0  0  0  0  0  0  0  0  0
   -0.1941   -0.6844   -0.2342 C   0  0  1  0  0  0  0  0  0  0  0  0
    0.0795   -0.0528   -1.6029 C   0  0  0  0  0  0  0  0  0  0  0  0
    1.5300    0.3392   -1.6044 C   0  0  0  0  0  0  0  0  0  0  0  0
    2.2408    0.1008   -2.5683 O   0  0  0  0  0  0  0  0  0  0  0  0
    2.0799    0.9350   -0.3707 C   0  0  0  0  0  0  0  0  0  0  0  0
    1.2754    0.9057    0.7922 C   0  0  0  0  0  0  0  0  0  0  0  0
    0.0654    0.2561    0.7665 O   0  0  0  0  0  0  0  0  0  0  0  0
    1.7484    1.5007    1.9701 C   0  0  0  0  0  0  0  0  0  0  0  0
    3.0281    2.0778    1.9986 C   0  0  0  0  0  0  0  0  0  0  0  0
    3.8368    2.0613    0.8564 C   0  0  0  0  0  0  0  0  0  0  0  0
    3.3651    1.4945   -0.3286 C   0  0  0  0  0  0  0  0  0  0  0  0
   -3.5887    1.2566   -0.4203 H   0  0  0  0  0  0  0  0  0  0  0  0
   -0.7248   -3.3195   -0.0038 H   0  0  0  0  0  0  0  0  0  0  0  0
   -2.8752   -4.4844   -0.0461 H   0  0  0  0  0  0  0  0  0  0  0  0
   -4.9855   -3.2142   -0.2558 H   0  0  0  0  0  0  0  0  0  0  0  0
   -4.9431   -0.7491   -0.3915 H   0  0  0  0  0  0  0  0  0  0  0  0
    0.5530   -1.5027   -0.1143 H   0  0  0  0  0  0  0  0  0  0  0  0
   -0.1416   -0.7390   -2.4482 H   0  0  0  0  0  0  0  0  0  0  0  0
   -0.5475    0.8600   -1.7024 H   0  0  0  0  0  0  0  0  0  0  0  0
    1.1436    1.4964    2.8669 H   0  0  0  0  0  0  0  0  0  0  0  0
    3.4022    2.5241    2.9111 H   0  0  0  0  0  0  0  0  0  0  0  0
    4.8305    2.4918    0.8873 H   0  0  0  0  0  0  0  0  0  0  0  0
    3.9951    1.4935   -1.2098 H   0  0  0  0  0  0  0  0  0  0  0  0
  1 19  1  0  0  0  0
  2  1  1  0  0  0  0
  3  2  2  0  0  0  0
  4  3  1  0  0  0  0
  4 20  1  0  0  0  0
  5  4  2  0  0  0  0
  5 21  1  0  0  0  0
  6  5  1  0  0  0  0
  6 22  1  0  0  0  0
  7  6  2  0  0  0  0
  7  2  1  0  0  0  0
  7 23  1  0  0  0  0
  8  3  1  0  0  0  0
  8 24  1  1  0  0  0
  9  8  1  0  0  0  0
  9 25  1  0  0  0  0
  9 26  1  0  0  0  0
 10  9  1  0  0  0  0
 11 10  2  0  0  0  0
 12 10  1  0  0  0  0
 13 12  2  0  0  0  0
 14 13  1  0  0  0  0
 14  8  1  0  0  0  0
 15 13  1  0  0  0  0
 15 27  1  0  0  0  0
 16 15  2  0  0  0  0
 16 28  1  0  0  0  0
 17 16  1  0  0  0  0
 17 29  1  0  0  0  0
 18 17  2  0  0  0  0
 18 12  1  0  0  0  0
 18 30  1  0  0  0  0
M  END
>  <MOL Chiral Flag>
0

>  <energy>
47.263344802944829

$$$$
