>237.sdf
 OpenBabel10052220493D

 31 33  0  0  0  0  0  0  0  0999 V2000
    6.5528    4.5307   -1.6029 Cl  0  0  0  0  0  0  0  0  0  0  0  0
    5.0425    3.8020   -1.0873 C   0  0  0  0  0  0  0  0  0  0  0  0
    4.5358    4.0867    0.1800 C   0  0  0  0  0  0  0  0  0  0  0  0
    3.3238    3.5317    0.5930 C   0  0  0  0  0  0  0  0  0  0  0  0
    2.5962    2.6682   -0.2710 C   0  0  0  0  0  0  0  0  0  0  0  0
    3.1251    2.3796   -1.5456 C   0  0  0  0  0  0  0  0  0  0  0  0
    4.3421    2.9487   -1.9464 C   0  0  0  0  0  0  0  0  0  0  0  0
    1.3436    2.1751    0.1725 C   0  0  0  0  0  0  0  0  0  0  0  0
    0.5138    1.3183   -0.6110 N   0  0  0  0  0  0  0  0  0  0  0  0
   -0.8546    1.4359   -0.4782 N   0  0  0  0  0  0  0  0  0  0  0  0
   -1.7404    0.3268   -0.3928 C   0  0  0  0  0  0  0  0  0  0  0  0
   -1.2982   -1.0072   -0.4779 C   0  0  0  0  0  0  0  0  0  0  0  0
   -2.2072   -2.0559   -0.2744 C   0  0  0  0  0  0  0  0  0  0  0  0
   -3.5498   -1.7814    0.0097 C   0  0  0  0  0  0  0  0  0  0  0  0
   -3.9922   -0.4611    0.0810 C   0  0  0  0  0  0  0  0  0  0  0  0
   -3.0942    0.5844   -0.1189 C   0  0  0  0  0  0  0  0  0  0  0  0
    0.8851    2.5458    1.4495 C   0  0  0  0  0  0  0  0  0  0  0  0
    1.6500    3.3684    2.2629 C   0  0  0  0  0  0  0  0  0  0  0  0
    2.8383    3.8448    1.8231 N   0  0  0  0  0  0  0  0  0  0  0  0
    5.0761    4.7531    0.8424 H   0  0  0  0  0  0  0  0  0  0  0  0
    2.6015    1.7381   -2.2399 H   0  0  0  0  0  0  0  0  0  0  0  0
    4.7374    2.7357   -2.9312 H   0  0  0  0  0  0  0  0  0  0  0  0
    0.9220    0.6225   -1.2529 H   0  0  0  0  0  0  0  0  0  0  0  0
   -1.2359    2.3558   -0.2069 H   0  0  0  0  0  0  0  0  0  0  0  0
   -0.2609   -1.2426   -0.6693 H   0  0  0  0  0  0  0  0  0  0  0  0
   -1.8693   -3.0826   -0.3194 H   0  0  0  0  0  0  0  0  0  0  0  0
   -4.2473   -2.5903    0.1827 H   0  0  0  0  0  0  0  0  0  0  0  0
   -5.0281   -0.2431    0.3078 H   0  0  0  0  0  0  0  0  0  0  0  0
   -3.4460    1.6062   -0.0378 H   0  0  0  0  0  0  0  0  0  0  0  0
   -0.0593    2.1720    1.8255 H   0  0  0  0  0  0  0  0  0  0  0  0
    1.2926    3.6302    3.2495 H   0  0  0  0  0  0  0  0  0  0  0  0
  2  1  1  0  0  0  0
  3  2  2  0  0  0  0
  3 20  1  0  0  0  0
  4  3  1  0  0  0  0
  5  4  2  0  0  0  0
  6  5  1  0  0  0  0
  6 21  1  0  0  0  0
  7  6  2  0  0  0  0
  7  2  1  0  0  0  0
  7 22  1  0  0  0  0
  8  5  1  0  0  0  0
  9  8  1  0  0  0  0
  9 23  1  0  0  0  0
 10  9  1  0  0  0  0
 10 24  1  0  0  0  0
 11 10  1  0  0  0  0
 12 11  2  0  0  0  0
 12 25  1  0  0  0  0
 13 12  1  0  0  0  0
 13 26  1  0  0  0  0
 14 13  2  0  0  0  0
 14 27  1  0  0  0  0
 15 14  1  0  0  0  0
 15 28  1  0  0  0  0
 16 15  2  0  0  0  0
 16 11  1  0  0  0  0
 16 29  1  0  0  0  0
 17  8  2  0  0  0  0
 17 30  1  0  0  0  0
 18 17  1  0  0  0  0
 18 31  1  0  0  0  0
 19 18  2  0  0  0  0
 19  4  1  0  0  0  0
M  END
>  <MOL Chiral Flag>
0

>  <energy>
62.285321585967459

$$$$
