>241.sdf
 OpenBabel10052220513D

 58 63  0  0  0  0  0  0  0  0999 V2000
    5.3796    0.1966   -0.3700 C   0  0  0  0  0  0  0  0  0  0  0  0
    4.9210    1.1946   -1.4365 C   0  0  0  0  0  0  0  0  0  0  0  0
    4.0041    1.8647   -0.3934 C   0  0  0  0  0  0  0  0  0  0  0  0
    4.7486    1.0811    0.7061 C   0  0  0  0  0  0  0  0  0  0  0  0
    2.4993    1.5057   -0.5292 C   0  0  0  0  0  0  0  0  0  0  0  0
    1.5053    2.5070   -0.5166 C   0  0  0  0  0  0  0  0  0  0  0  0
    0.1473    2.1867   -0.6363 C   0  0  0  0  0  0  0  0  0  0  0  0
   -0.2861    0.8526   -0.7586 C   0  0  0  0  0  0  0  0  0  0  0  0
    0.7199   -0.1420   -0.7886 C   0  0  0  0  0  0  0  0  0  0  0  0
    2.0721    0.1767   -0.6767 C   0  0  0  0  0  0  0  0  0  0  0  0
   -1.7116    0.4916   -0.8725 N   0  0  0  0  0  0  0  0  0  0  0  0
   -2.2298   -0.7582   -0.7269 C   0  0  0  0  0  0  0  0  0  0  0  0
   -3.5583   -0.7412   -0.9687 C   0  0  0  0  0  0  0  0  0  0  0  0
   -4.3263   -1.8928   -0.9014 C   0  0  0  0  0  0  0  0  0  0  0  0
   -3.6752   -3.0927   -0.5708 C   0  0  0  0  0  0  0  0  0  0  0  0
   -2.2708   -3.0898   -0.3103 C   0  0  0  0  0  0  0  0  0  0  0  0
   -1.5874   -1.9027   -0.3921 N   0  0  0  0  0  0  0  0  0  0  0  0
   -1.5102   -4.3341    0.0373 C   0  0  0  0  0  0  0  0  0  0  0  0
   -2.1108   -5.6144    0.0345 C   0  0  0  0  0  0  0  0  0  0  0  0
   -1.3611   -6.7510    0.3543 C   0  0  0  0  0  0  0  0  0  0  0  0
   -0.0111   -6.6347    0.6834 C   0  0  0  0  0  0  0  0  0  0  0  0
    0.5976   -5.3807    0.6931 C   0  0  0  0  0  0  0  0  0  0  0  0
   -0.1409   -4.2387    0.3716 C   0  0  0  0  0  0  0  0  0  0  0  0
   -3.9537    0.4958   -1.2712 N   0  0  0  0  0  0  0  0  0  0  0  0
   -2.8250    1.2490   -1.1899 C   0  0  0  0  0  0  0  0  0  0  0  0
   -2.9049    2.6859   -1.5262 C   0  0  0  0  0  0  0  0  0  0  0  0
   -2.8415    3.7119   -0.5526 C   0  0  0  0  0  0  0  0  0  0  0  0
   -2.9966    5.0111   -0.9347 N   0  0  0  0  0  0  0  0  0  0  0  0
   -3.2336    5.3593   -2.2275 C   0  0  0  0  0  0  0  0  0  0  0  0
   -3.3365    4.3756   -3.2087 C   0  0  0  0  0  0  0  0  0  0  0  0
   -3.1797    3.0378   -2.8544 C   0  0  0  0  0  0  0  0  0  0  0  0
   -2.6400    3.4163    0.8191 N   0  0  0  0  0  0  0  0  0  0  0  0
    4.2553    3.3160   -0.2922 N   0  3  0  0  0  0  0  0  0  0  0  0
    6.4739    0.0180   -0.2902 H   0  0  0  0  0  0  0  0  0  0  0  0
    4.8256   -0.7548   -0.4576 H   0  0  0  0  0  0  0  0  0  0  0  0
    4.4541    0.7624   -2.3478 H   0  0  0  0  0  0  0  0  0  0  0  0
    5.7910    1.8489   -1.6690 H   0  0  0  0  0  0  0  0  0  0  0  0
    4.1451    0.5620    1.4819 H   0  0  0  0  0  0  0  0  0  0  0  0
    5.5647    1.7010    1.1412 H   0  0  0  0  0  0  0  0  0  0  0  0
    1.7607    3.5505   -0.4115 H   0  0  0  0  0  0  0  0  0  0  0  0
   -0.5331    2.9989   -0.6154 H   0  0  0  0  0  0  0  0  0  0  0  0
    0.4965   -1.1794   -0.9220 H   0  0  0  0  0  0  0  0  0  0  0  0
    2.7696   -0.6354   -0.7138 H   0  0  0  0  0  0  0  0  0  0  0  0
   -5.3897   -1.8689   -1.1011 H   0  0  0  0  0  0  0  0  0  0  0  0
   -4.2676   -3.9908   -0.5197 H   0  0  0  0  0  0  0  0  0  0  0  0
   -3.1479   -5.7560   -0.2189 H   0  0  0  0  0  0  0  0  0  0  0  0
   -1.8303   -7.7264    0.3444 H   0  0  0  0  0  0  0  0  0  0  0  0
    0.5642   -7.5176    0.9302 H   0  0  0  0  0  0  0  0  0  0  0  0
    1.6456   -5.2917    0.9491 H   0  0  0  0  0  0  0  0  0  0  0  0
    0.3612   -3.2805    0.3885 H   0  0  0  0  0  0  0  0  0  0  0  0
   -3.3570    6.4011   -2.4919 H   0  0  0  0  0  0  0  0  0  0  0  0
   -3.5424    4.6467   -4.2363 H   0  0  0  0  0  0  0  0  0  0  0  0
   -3.2720    2.2712   -3.6148 H   0  0  0  0  0  0  0  0  0  0  0  0
   -2.5258    2.4470    1.1470 H   0  0  0  0  0  0  0  0  0  0  0  0
   -2.6030    4.1815    1.5082 H   0  0  0  0  0  0  0  0  0  0  0  0
    5.2780    3.5237   -0.2124 H   0  0  0  0  0  0  0  0  0  0  0  0
    3.7941    3.7023    0.5631 H   0  0  0  0  0  0  0  0  0  0  0  0
    3.9054    3.8014   -1.1498 H   0  0  0  0  0  0  0  0  0  0  0  0
  1 34  1  0  0  0  0
  1 35  1  0  0  0  0
  2  1  1  0  0  0  0
  2 36  1  0  0  0  0
  2 37  1  0  0  0  0
  3  2  1  0  0  0  0
  4  3  1  0  0  0  0
  4  1  1  0  0  0  0
  4 38  1  0  0  0  0
  4 39  1  0  0  0  0
  5  3  1  0  0  0  0
  6  5  2  0  0  0  0
  6 40  1  0  0  0  0
  7  6  1  0  0  0  0
  7 41  1  0  0  0  0
  8  7  2  0  0  0  0
  9  8  1  0  0  0  0
  9 42  1  0  0  0  0
 10  9  2  0  0  0  0
 10  5  1  0  0  0  0
 10 43  1  0  0  0  0
 11  8  1  0  0  0  0
 12 11  1  0  0  0  0
 13 12  2  0  0  0  0
 14 13  1  0  0  0  0
 14 44  1  0  0  0  0
 15 14  2  0  0  0  0
 15 45  1  0  0  0  0
 16 15  1  0  0  0  0
 17 16  2  0  0  0  0
 17 12  1  0  0  0  0
 18 16  1  0  0  0  0
 19 18  2  0  0  0  0
 19 46  1  0  0  0  0
 20 19  1  0  0  0  0
 20 47  1  0  0  0  0
 21 20  2  0  0  0  0
 21 48  1  0  0  0  0
 22 21  1  0  0  0  0
 22 49  1  0  0  0  0
 23 22  2  0  0  0  0
 23 18  1  0  0  0  0
 23 50  1  0  0  0  0
 24 13  1  0  0  0  0
 25 24  2  0  0  0  0
 25 11  1  0  0  0  0
 26 25  1  0  0  0  0
 27 26  2  0  0  0  0
 28 27  1  0  0  0  0
 29 28  2  0  0  0  0
 29 51  1  0  0  0  0
 30 29  1  0  0  0  0
 30 52  1  0  0  0  0
 31 30  2  0  0  0  0
 31 26  1  0  0  0  0
 31 53  1  0  0  0  0
 32 27  1  0  0  0  0
 32 54  1  0  0  0  0
 32 55  1  0  0  0  0
 33  3  1  0  0  0  0
 33 56  1  0  0  0  0
 33 57  1  0  0  0  0
 33 58  1  0  0  0  0
M  CHG  1  33   1
M  END
>  <MOL Chiral Flag>
0

>  <energy>
121.17599213969204

$$$$
