>248.sdf
 OpenBabel10062211553D

 46 46  0  0  0  0  0  0  0  0999 V2000
  -10.6402   -1.6286   -3.8079 C   0  0  0  0  0  0  0  0  0  0  0  0
   -9.5120   -0.7084   -3.3390 C   0  0  0  0  0  0  0  0  0  0  0  0
   -8.2509   -1.5139   -3.0018 C   0  0  0  0  0  0  0  0  0  0  0  0
   -7.0853   -0.6157   -2.5453 C   0  0  0  0  0  0  0  0  0  0  0  0
   -5.8710   -1.4818   -2.1740 C   0  0  0  0  0  0  0  0  0  0  0  0
   -4.6332   -0.6709   -1.7378 C   0  0  0  0  0  0  0  0  0  0  0  0
   -3.4970   -1.6459   -1.3674 C   0  0  0  0  0  0  0  0  0  0  0  0
   -2.1502   -0.9996   -0.9651 C   0  0  0  0  0  0  0  0  0  0  0  0
   -1.5588   -0.1978   -2.0581 N   0  3  0  0  0  0  0  0  0  0  0  0
   -0.1003   -0.3808   -2.2043 C   0  0  0  0  0  0  0  0  0  0  0  0
    0.7448    0.1571   -1.0663 C   0  0  0  0  0  0  0  0  0  0  0  0
    0.7297    1.5232   -0.7457 C   0  0  0  0  0  0  0  0  0  0  0  0
    1.5822    2.0265    0.2453 C   0  0  0  0  0  0  0  0  0  0  0  0
    2.4646    1.1787    0.9269 C   0  0  0  0  0  0  0  0  0  0  0  0
    3.3007    1.7196    1.8557 O   0  0  0  0  0  0  0  0  0  0  0  0
    4.2723    1.0300    2.5544 C   0  0  0  0  0  0  0  0  0  0  0  0
    2.4699   -0.1963    0.6179 C   0  0  0  0  0  0  0  0  0  0  0  0
    1.6157   -0.6999   -0.3702 C   0  0  0  0  0  0  0  0  0  0  0  0
  -11.5473   -1.0287   -4.0332 H   0  0  0  0  0  0  0  0  0  0  0  0
  -10.8938   -2.3687   -3.0188 H   0  0  0  0  0  0  0  0  0  0  0  0
  -10.3393   -2.1721   -4.7293 H   0  0  0  0  0  0  0  0  0  0  0  0
   -9.8521   -0.1561   -2.4362 H   0  0  0  0  0  0  0  0  0  0  0  0
   -9.2903    0.0237   -4.1452 H   0  0  0  0  0  0  0  0  0  0  0  0
   -7.9346   -2.0868   -3.9020 H   0  0  0  0  0  0  0  0  0  0  0  0
   -8.4978   -2.2352   -2.1916 H   0  0  0  0  0  0  0  0  0  0  0  0
   -7.3963   -0.0207   -1.6591 H   0  0  0  0  0  0  0  0  0  0  0  0
   -6.8152    0.0807   -3.3693 H   0  0  0  0  0  0  0  0  0  0  0  0
   -5.5944   -2.0999   -3.0571 H   0  0  0  0  0  0  0  0  0  0  0  0
   -6.1674   -2.1623   -1.3454 H   0  0  0  0  0  0  0  0  0  0  0  0
   -4.8808   -0.0363   -0.8595 H   0  0  0  0  0  0  0  0  0  0  0  0
   -4.3183   -0.0144   -2.5774 H   0  0  0  0  0  0  0  0  0  0  0  0
   -3.3040   -2.3157   -2.2348 H   0  0  0  0  0  0  0  0  0  0  0  0
   -3.8411   -2.2796   -0.5209 H   0  0  0  0  0  0  0  0  0  0  0  0
   -1.4839   -1.8528   -0.7036 H   0  0  0  0  0  0  0  0  0  0  0  0
   -2.2617   -0.3775   -0.0495 H   0  0  0  0  0  0  0  0  0  0  0  0
   -1.8087    0.8118   -1.9432 H   0  0  0  0  0  0  0  0  0  0  0  0
   -1.9595   -0.5127   -2.9727 H   0  0  0  0  0  0  0  0  0  0  0  0
    0.2308    0.1479   -3.1252 H   0  0  0  0  0  0  0  0  0  0  0  0
    0.1155   -1.4608   -2.3714 H   0  0  0  0  0  0  0  0  0  0  0  0
    0.0779    2.2028   -1.2785 H   0  0  0  0  0  0  0  0  0  0  0  0
    1.5724    3.0854    0.4708 H   0  0  0  0  0  0  0  0  0  0  0  0
    4.8101    1.7362    3.2205 H   0  0  0  0  0  0  0  0  0  0  0  0
    5.0105    0.5846    1.8526 H   0  0  0  0  0  0  0  0  0  0  0  0
    3.8114    0.2369    3.1800 H   0  0  0  0  0  0  0  0  0  0  0  0
    3.1409   -0.8782    1.1231 H   0  0  0  0  0  0  0  0  0  0  0  0
    1.6527   -1.7555   -0.6086 H   0  0  0  0  0  0  0  0  0  0  0  0
  1 19  1  0  0  0  0
  1 20  1  0  0  0  0
  1 21  1  0  0  0  0
  2  1  1  0  0  0  0
  2 22  1  0  0  0  0
  2 23  1  0  0  0  0
  3  2  1  0  0  0  0
  3 24  1  0  0  0  0
  3 25  1  0  0  0  0
  4  3  1  0  0  0  0
  4 26  1  0  0  0  0
  4 27  1  0  0  0  0
  5  4  1  0  0  0  0
  5 28  1  0  0  0  0
  5 29  1  0  0  0  0
  6  5  1  0  0  0  0
  6 30  1  0  0  0  0
  6 31  1  0  0  0  0
  7  6  1  0  0  0  0
  7 32  1  0  0  0  0
  7 33  1  0  0  0  0
  8  7  1  0  0  0  0
  8 34  1  0  0  0  0
  8 35  1  0  0  0  0
  9  8  1  0  0  0  0
  9 36  1  0  0  0  0
  9 37  1  0  0  0  0
 10  9  1  0  0  0  0
 10 38  1  0  0  0  0
 10 39  1  0  0  0  0
 11 10  1  0  0  0  0
 12 11  2  0  0  0  0
 12 40  1  0  0  0  0
 13 12  1  0  0  0  0
 13 41  1  0  0  0  0
 14 13  2  0  0  0  0
 15 14  1  0  0  0  0
 16 15  1  0  0  0  0
 16 42  1  0  0  0  0
 16 43  1  0  0  0  0
 16 44  1  0  0  0  0
 17 14  1  0  0  0  0
 17 45  1  0  0  0  0
 18 17  2  0  0  0  0
 18 11  1  0  0  0  0
 18 46  1  0  0  0  0
M  CHG  1   9   1
M  END
>  <MOL Chiral Flag>
0

>  <energy>
29.284579918883047

$$$$
