>249.sdf
 OpenBabel10062211553D

 48 51  0  0  0  0  0  0  0  0999 V2000
   -0.8386   -3.6800    0.4639 C   0  0  0  0  0  0  0  0  0  0  0  0
   -0.2917   -2.6327   -0.5121 C   0  0  1  0  0  0  0  0  0  0  0  0
   -1.3361   -1.5932   -0.7400 C   0  0  0  0  0  0  0  0  0  0  0  0
   -1.5093   -0.5008    0.0458 N   0  0  0  0  0  0  0  0  0  0  0  0
   -2.4605    0.3403   -0.4599 C   0  0  0  0  0  0  0  0  0  0  0  0
   -3.1036   -0.1345   -1.6227 C   0  0  0  0  0  0  0  0  0  0  0  0
   -2.4135   -1.5941   -2.0182 S   0  0  0  0  0  0  0  0  0  0  0  0
   -2.7241    1.6442    0.1684 C   0  0  0  0  0  0  0  0  0  0  0  0
   -2.3892    1.8337    1.5156 C   0  0  0  0  0  0  0  0  0  0  0  0
   -2.5901    3.0722    2.1311 C   0  0  0  0  0  0  0  0  0  0  0  0
   -3.1205    4.1401    1.4003 C   0  0  0  0  0  0  0  0  0  0  0  0
   -3.4547    3.9611    0.0538 C   0  0  0  0  0  0  0  0  0  0  0  0
   -3.2597    2.7198   -0.5620 C   0  0  0  0  0  0  0  0  0  0  0  0
   -3.3062    5.4232    2.0226 C   0  0  0  0  0  0  0  0  0  0  0  0
   -3.4608    6.4596    2.5133 N   0  0  0  0  0  0  0  0  0  0  0  0
    1.1226   -2.0733   -0.1083 C   0  0  2  0  0  0  0  0  0  0  0  0
    2.0168   -3.1697   -0.0862 O   0  0  0  0  0  0  0  0  0  0  0  0
    1.1242   -1.5661    1.3732 C   0  0  0  0  0  0  0  0  0  0  0  0
    2.3516   -0.9495    1.8182 N   0  0  0  0  0  0  0  0  0  0  0  0
    3.5811   -1.4995    1.9042 C   0  0  0  0  0  0  0  0  0  0  0  0
    4.4351   -0.6241    2.4432 N   0  0  0  0  0  0  0  0  0  0  0  0
    3.6569    0.4647    2.6850 C   0  0  0  0  0  0  0  0  0  0  0  0
    2.3873    0.2705    2.3130 N   0  0  0  0  0  0  0  0  0  0  0  0
    1.5847   -1.0215   -1.1547 C   0  0  0  0  0  0  0  0  0  0  0  0
    2.1213   -1.4418   -2.3971 C   0  0  0  0  0  0  0  0  0  0  0  0
    2.2283   -2.7272   -2.7375 F   0  0  0  0  0  0  0  0  0  0  0  0
    2.5467   -0.5371   -3.3533 C   0  0  0  0  0  0  0  0  0  0  0  0
    2.4279    0.8186   -3.1140 C   0  0  0  0  0  0  0  0  0  0  0  0
    2.8332    1.6987   -4.0457 F   0  0  0  0  0  0  0  0  0  0  0  0
    1.8827    1.2766   -1.9195 C   0  0  0  0  0  0  0  0  0  0  0  0
    1.4573    0.3678   -0.9437 C   0  0  0  0  0  0  0  0  0  0  0  0
   -1.7404   -4.1631    0.0539 H   0  0  0  0  0  0  0  0  0  0  0  0
   -1.1223   -3.2340    1.4292 H   0  0  0  0  0  0  0  0  0  0  0  0
   -0.0988   -4.4735    0.6497 H   0  0  0  0  0  0  0  0  0  0  0  0
   -0.1598   -3.1622   -1.4750 H   0  0  0  0  0  0  0  0  0  0  0  0
   -3.8886    0.3323   -2.1736 H   0  0  0  0  0  0  0  0  0  0  0  0
   -1.9707    1.0174    2.0938 H   0  0  0  0  0  0  0  0  0  0  0  0
   -2.3195    3.1959    3.1744 H   0  0  0  0  0  0  0  0  0  0  0  0
   -3.8572    4.7853   -0.5262 H   0  0  0  0  0  0  0  0  0  0  0  0
   -3.4992    2.6216   -1.6134 H   0  0  0  0  0  0  0  0  0  0  0  0
    2.2319   -3.4710   -0.9660 H   0  0  0  0  0  0  0  0  0  0  0  0
    0.3238   -0.8461    1.5767 H   0  0  0  0  0  0  0  0  0  0  0  0
    0.9760   -2.4195    2.0552 H   0  0  0  0  0  0  0  0  0  0  0  0
    3.8402   -2.5099    1.6004 H   0  0  0  0  0  0  0  0  0  0  0  0
    4.0067    1.3698    3.1236 H   0  0  0  0  0  0  0  0  0  0  0  0
    2.9683   -0.8956   -4.2903 H   0  0  0  0  0  0  0  0  0  0  0  0
    1.7903    2.3432   -1.7488 H   0  0  0  0  0  0  0  0  0  0  0  0
    1.0199    0.7637   -0.0403 H   0  0  0  0  0  0  0  0  0  0  0  0
  1 32  1  0  0  0  0
  1 33  1  0  0  0  0
  1 34  1  0  0  0  0
  2  1  1  0  0  0  0
  2 35  1  6  0  0  0
  3  2  1  0  0  0  0
  4  3  2  0  0  0  0
  5  4  1  0  0  0  0
  6  5  2  0  0  0  0
  6 36  1  0  0  0  0
  7  6  1  0  0  0  0
  7  3  1  0  0  0  0
  8  5  1  0  0  0  0
  9  8  2  0  0  0  0
  9 37  1  0  0  0  0
 10  9  1  0  0  0  0
 10 38  1  0  0  0  0
 11 10  2  0  0  0  0
 12 11  1  0  0  0  0
 12 39  1  0  0  0  0
 13 12  2  0  0  0  0
 13  8  1  0  0  0  0
 13 40  1  0  0  0  0
 14 11  1  0  0  0  0
 15 14  3  0  0  0  0
 16  2  1  0  0  0  0
 16 17  1  6  0  0  0
 17 41  1  0  0  0  0
 18 16  1  0  0  0  0
 18 42  1  0  0  0  0
 18 43  1  0  0  0  0
 19 18  1  0  0  0  0
 20 19  1  0  0  0  0
 20 44  1  0  0  0  0
 21 20  2  0  0  0  0
 22 21  1  0  0  0  0
 22 45  1  0  0  0  0
 23 22  2  0  0  0  0
 23 19  1  0  0  0  0
 24 16  1  0  0  0  0
 25 24  2  0  0  0  0
 26 25  1  0  0  0  0
 27 25  1  0  0  0  0
 27 46  1  0  0  0  0
 28 27  2  0  0  0  0
 29 28  1  0  0  0  0
 30 28  1  0  0  0  0
 30 47  1  0  0  0  0
 31 30  2  0  0  0  0
 31 24  1  0  0  0  0
 31 48  1  0  0  0  0
M  END
>  <MOL Chiral Flag>
0

>  <energy>
73.617767610605839

$$$$
