>252.sdf
 OpenBabel10062211563D

 58 61  0  0  0  0  0  0  0  0999 V2000
    8.2328    1.6144    1.6613 C   0  0  0  0  0  0  0  0  0  0  0  0
    7.6049    1.3297    0.4633 O   0  0  0  0  0  0  0  0  0  0  0  0
    7.2602    0.0771    0.0619 C   0  0  0  0  0  0  0  0  0  0  0  0
    7.8248   -0.9033    0.5285 O   0  0  0  0  0  0  0  0  0  0  0  0
    5.9785   -0.0720   -0.6529 C   0  0  0  0  0  0  0  0  0  0  0  0
    5.4106    1.0346   -1.2902 C   0  0  0  0  0  0  0  0  0  0  0  0
    4.0948    0.9971   -1.7403 C   0  0  0  0  0  0  0  0  0  0  0  0
    3.4373    2.4729   -2.4503 Cl  0  0  0  0  0  0  0  0  0  0  0  0
    3.3015   -0.1563   -1.5248 C   0  0  0  0  0  0  0  0  0  0  0  0
    1.8741   -0.0297   -1.6625 N   0  0  0  0  0  0  0  0  0  0  0  0
    0.9451   -0.9449   -1.2619 C   0  0  0  0  0  0  0  0  0  0  0  0
    1.2223   -2.1198   -1.0914 O   0  0  0  0  0  0  0  0  0  0  0  0
   -0.4112   -0.4617   -0.8495 C   0  0  0  0  0  0  0  0  0  0  0  0
   -1.2813    0.5413   -2.1058 S   0  0  0  0  0  0  0  0  0  0  0  0
   -2.0062    1.6328   -0.8614 C   0  0  0  0  0  0  0  0  0  0  0  0
   -1.3407    2.7038   -0.3496 N   0  0  0  0  0  0  0  0  0  0  0  0
   -2.1994    3.2322    0.5365 C   0  0  0  0  0  0  0  0  0  0  0  0
   -2.0171    4.3613    1.3338 C   0  0  0  0  0  0  0  0  0  0  0  0
   -3.0686    4.7417    2.1873 C   0  0  0  0  0  0  0  0  0  0  0  0
   -4.2671    3.9879    2.2244 C   0  0  0  0  0  0  0  0  0  0  0  0
   -5.5719    4.4765    3.2896 Cl  0  0  0  0  0  0  0  0  0  0  0  0
   -4.4164    2.8490    1.4049 C   0  0  0  0  0  0  0  0  0  0  0  0
   -3.3544    2.5015    0.5685 C   0  0  0  0  0  0  0  0  0  0  0  0
   -3.2417    1.4859   -0.3116 N   0  0  0  0  0  0  0  0  0  0  0  0
   -4.2463    0.4625   -0.6463 C   0  0  0  0  0  0  0  0  0  0  0  0
   -3.7332   -0.9335   -0.3917 C   0  0  0  0  0  0  0  0  0  0  0  0
   -3.4505   -1.3717    0.9139 C   0  0  0  0  0  0  0  0  0  0  0  0
   -2.9628   -2.6738    1.1329 C   0  0  0  0  0  0  0  0  0  0  0  0
   -2.6642   -3.1626    2.5202 C   0  0  0  0  0  0  0  0  0  0  0  0
   -2.7446   -3.5277    0.0412 C   0  0  0  0  0  0  0  0  0  0  0  0
   -3.0198   -3.0939   -1.2636 C   0  0  0  0  0  0  0  0  0  0  0  0
   -2.7595   -3.9857   -2.4409 C   0  0  0  0  0  0  0  0  0  0  0  0
   -3.5264   -1.8060   -1.4732 C   0  0  0  0  0  0  0  0  0  0  0  0
    3.9282   -1.3127   -0.9883 C   0  0  0  0  0  0  0  0  0  0  0  0
    5.2563   -1.2657   -0.5677 C   0  0  0  0  0  0  0  0  0  0  0  0
    8.5040    0.7012    2.2336 H   0  0  0  0  0  0  0  0  0  0  0  0
    9.1354    2.2269    1.4780 H   0  0  0  0  0  0  0  0  0  0  0  0
    7.5283    2.1998    2.2936 H   0  0  0  0  0  0  0  0  0  0  0  0
    5.9686    1.9584   -1.3807 H   0  0  0  0  0  0  0  0  0  0  0  0
    1.5151    0.9168   -1.8410 H   0  0  0  0  0  0  0  0  0  0  0  0
   -1.0276   -1.3067   -0.5062 H   0  0  0  0  0  0  0  0  0  0  0  0
   -0.2007    0.1787    0.0357 H   0  0  0  0  0  0  0  0  0  0  0  0
   -1.0974    4.9315    1.2944 H   0  0  0  0  0  0  0  0  0  0  0  0
   -2.9595    5.6171    2.8158 H   0  0  0  0  0  0  0  0  0  0  0  0
   -5.3315    2.2743    1.4310 H   0  0  0  0  0  0  0  0  0  0  0  0
   -5.1820    0.6055   -0.0703 H   0  0  0  0  0  0  0  0  0  0  0  0
   -4.5003    0.5895   -1.7199 H   0  0  0  0  0  0  0  0  0  0  0  0
   -3.6107   -0.7037    1.7520 H   0  0  0  0  0  0  0  0  0  0  0  0
   -3.2857   -4.0570    2.7394 H   0  0  0  0  0  0  0  0  0  0  0  0
   -2.8816   -2.3885    3.2858 H   0  0  0  0  0  0  0  0  0  0  0  0
   -1.5922   -3.4432    2.5964 H   0  0  0  0  0  0  0  0  0  0  0  0
   -2.3547   -4.5250    0.2092 H   0  0  0  0  0  0  0  0  0  0  0  0
   -2.3502   -4.9697   -2.1290 H   0  0  0  0  0  0  0  0  0  0  0  0
   -2.0192   -3.4991   -3.1123 H   0  0  0  0  0  0  0  0  0  0  0  0
   -3.7022   -4.1525   -3.0017 H   0  0  0  0  0  0  0  0  0  0  0  0
   -3.7327   -1.4731   -2.4834 H   0  0  0  0  0  0  0  0  0  0  0  0
    3.4096   -2.2300   -0.7911 H   0  0  0  0  0  0  0  0  0  0  0  0
    5.6795   -2.1324   -0.0741 H   0  0  0  0  0  0  0  0  0  0  0  0
  1 36  1  0  0  0  0
  1 37  1  0  0  0  0
  1 38  1  0  0  0  0
  2  1  1  0  0  0  0
  3  2  1  0  0  0  0
  4  3  2  0  0  0  0
  5  3  1  0  0  0  0
  6  5  2  0  0  0  0
  6 39  1  0  0  0  0
  7  6  1  0  0  0  0
  8  7  1  0  0  0  0
  9  7  2  0  0  0  0
 10  9  1  0  0  0  0
 10 40  1  0  0  0  0
 11 10  1  0  0  0  0
 12 11  2  0  0  0  0
 13 11  1  0  0  0  0
 13 41  1  0  0  0  0
 13 42  1  0  0  0  0
 14 13  1  0  0  0  0
 15 14  1  0  0  0  0
 16 15  2  0  0  0  0
 17 16  1  0  0  0  0
 18 17  2  0  0  0  0
 18 43  1  0  0  0  0
 19 18  1  0  0  0  0
 19 44  1  0  0  0  0
 20 19  2  0  0  0  0
 21 20  1  0  0  0  0
 22 20  1  0  0  0  0
 22 45  1  0  0  0  0
 23 22  2  0  0  0  0
 23 17  1  0  0  0  0
 24 23  1  0  0  0  0
 24 15  1  0  0  0  0
 25 24  1  0  0  0  0
 25 46  1  0  0  0  0
 25 47  1  0  0  0  0
 26 25  1  0  0  0  0
 27 26  2  0  0  0  0
 27 48  1  0  0  0  0
 28 27  1  0  0  0  0
 29 28  1  0  0  0  0
 29 49  1  0  0  0  0
 29 50  1  0  0  0  0
 29 51  1  0  0  0  0
 30 28  2  0  0  0  0
 30 52  1  0  0  0  0
 31 30  1  0  0  0  0
 32 31  1  0  0  0  0
 32 53  1  0  0  0  0
 32 54  1  0  0  0  0
 32 55  1  0  0  0  0
 33 31  2  0  0  0  0
 33 26  1  0  0  0  0
 33 56  1  0  0  0  0
 34  9  1  0  0  0  0
 34 57  1  0  0  0  0
 35 34  2  0  0  0  0
 35  5  1  0  0  0  0
 35 58  1  0  0  0  0
M  END
>  <MOL Chiral Flag>
0

>  <energy>
90.191714810241393

$$$$
