>253.sdf
 OpenBabel10062211573D

 62 61  0  0  0  0  0  0  0  0999 V2000
  -10.4659  -13.8959   -0.9884 C   0  0  0  0  0  0  0  0  0  0  0  0
   -9.2070  -13.1665   -1.4483 C   0  0  0  0  0  0  0  0  0  0  0  0
   -9.0493  -11.7179   -0.9272 C   0  0  0  0  0  0  0  0  0  0  0  0
   -8.0093  -10.9435   -1.7788 C   0  0  0  0  0  0  0  0  0  0  0  0
   -7.1879   -9.7893   -1.1140 C   0  0  0  0  0  0  0  0  0  0  0  0
   -6.4748   -8.9561   -2.1861 C   0  0  0  0  0  0  0  0  0  0  0  0
   -5.6207   -7.9026   -2.1622 C   0  0  0  0  0  0  0  0  0  0  0  0
   -5.0440   -7.1027   -1.0177 C   0  0  0  0  0  0  0  0  0  0  0  0
   -3.7179   -6.3398   -1.2171 C   0  0  0  0  0  0  0  0  0  0  0  0
   -2.8114   -6.2859   -2.2205 C   0  0  0  0  0  0  0  0  0  0  0  0
   -1.5696   -5.3696   -2.3143 C   0  0  0  0  0  0  0  0  0  0  0  0
   -0.6807   -5.2950   -1.0884 C   0  0  0  0  0  0  0  0  0  0  0  0
    0.6030   -4.8790   -0.9707 C   0  0  0  0  0  0  0  0  0  0  0  0
    1.5866   -4.3666   -2.0033 C   0  0  0  0  0  0  0  0  0  0  0  0
    2.0803   -2.9632   -1.7015 C   0  0  0  0  0  0  0  0  0  0  0  0
    3.3102   -2.4862   -1.9889 C   0  0  0  0  0  0  0  0  0  0  0  0
    3.7674   -1.0581   -1.7558 C   0  0  0  0  0  0  0  0  0  0  0  0
    2.9037   -0.0294   -2.4955 C   0  0  0  0  0  0  0  0  0  0  0  0
    3.2208    1.4217   -2.1214 C   0  0  0  0  0  0  0  0  0  0  0  0
    2.2154    2.3678   -2.7775 C   0  0  0  0  0  0  0  0  0  0  0  0
    2.2988    3.6509   -2.1789 O   0  0  0  0  0  0  0  0  0  0  0  0
    0.8882    4.3561   -1.8328 P   0  0  1  0  0  0  0  0  0  0  0  0
    1.2801    5.7344   -1.1953 F   0  0  0  0  0  0  0  0  0  0  0  0
   -0.0611    4.4998   -2.9742 O   0  0  0  0  0  0  0  0  0  0  0  0
    0.3433    3.4902   -0.5850 O   0  0  0  0  0  0  0  0  0  0  0  0
   -0.9627    3.7875   -0.1397 C   0  0  0  0  0  0  0  0  0  0  0  0
  -10.4313  -14.9412   -1.3230 H   0  0  0  0  0  0  0  0  0  0  0  0
  -11.3660  -13.4497   -1.4239 H   0  0  0  0  0  0  0  0  0  0  0  0
  -10.5673  -13.9001    0.1003 H   0  0  0  0  0  0  0  0  0  0  0  0
   -8.3360  -13.7491   -1.1246 H   0  0  0  0  0  0  0  0  0  0  0  0
   -9.2032  -13.1731   -2.5449 H   0  0  0  0  0  0  0  0  0  0  0  0
   -8.7694  -11.7403    0.1312 H   0  0  0  0  0  0  0  0  0  0  0  0
  -10.0185  -11.2059   -0.9953 H   0  0  0  0  0  0  0  0  0  0  0  0
   -8.5635  -10.5371   -2.6359 H   0  0  0  0  0  0  0  0  0  0  0  0
   -7.2890  -11.6607   -2.1923 H   0  0  0  0  0  0  0  0  0  0  0  0
   -7.8565   -9.1543   -0.5234 H   0  0  0  0  0  0  0  0  0  0  0  0
   -6.4470  -10.2363   -0.4408 H   0  0  0  0  0  0  0  0  0  0  0  0
   -6.7537   -9.2672   -3.1960 H   0  0  0  0  0  0  0  0  0  0  0  0
   -5.3691   -7.4968   -3.1430 H   0  0  0  0  0  0  0  0  0  0  0  0
   -4.9466   -7.7329   -0.1281 H   0  0  0  0  0  0  0  0  0  0  0  0
   -5.7864   -6.3265   -0.7838 H   0  0  0  0  0  0  0  0  0  0  0  0
   -3.5195   -5.6861   -0.3662 H   0  0  0  0  0  0  0  0  0  0  0  0
   -2.9855   -6.8814   -3.1152 H   0  0  0  0  0  0  0  0  0  0  0  0
   -1.9212   -4.3584   -2.5565 H   0  0  0  0  0  0  0  0  0  0  0  0
   -0.9666   -5.7074   -3.1668 H   0  0  0  0  0  0  0  0  0  0  0  0
   -1.1557   -5.6072   -0.1599 H   0  0  0  0  0  0  0  0  0  0  0  0
    1.0326   -4.9254    0.0324 H   0  0  0  0  0  0  0  0  0  0  0  0
    1.1387   -4.3727   -3.0012 H   0  0  0  0  0  0  0  0  0  0  0  0
    2.4443   -5.0526   -2.0216 H   0  0  0  0  0  0  0  0  0  0  0  0
    1.3543   -2.2907   -1.2497 H   0  0  0  0  0  0  0  0  0  0  0  0
    4.0484   -3.1423   -2.4486 H   0  0  0  0  0  0  0  0  0  0  0  0
    3.7838   -0.8537   -0.6786 H   0  0  0  0  0  0  0  0  0  0  0  0
    4.8056   -0.9584   -2.1011 H   0  0  0  0  0  0  0  0  0  0  0  0
    3.0270   -0.1587   -3.5783 H   0  0  0  0  0  0  0  0  0  0  0  0
    1.8473   -0.2152   -2.2717 H   0  0  0  0  0  0  0  0  0  0  0  0
    4.2373    1.6935   -2.4324 H   0  0  0  0  0  0  0  0  0  0  0  0
    3.1895    1.5517   -1.0329 H   0  0  0  0  0  0  0  0  0  0  0  0
    1.2000    1.9697   -2.6703 H   0  0  0  0  0  0  0  0  0  0  0  0
    2.4220    2.4709   -3.8477 H   0  0  0  0  0  0  0  0  0  0  0  0
   -1.0584    4.8537    0.0816 H   0  0  0  0  0  0  0  0  0  0  0  0
   -1.6912    3.4968   -0.9015 H   0  0  0  0  0  0  0  0  0  0  0  0
   -1.1603    3.2159    0.7709 H   0  0  0  0  0  0  0  0  0  0  0  0
  1 27  1  0  0  0  0
  1 28  1  0  0  0  0
  1 29  1  0  0  0  0
  2  1  1  0  0  0  0
  2 30  1  0  0  0  0
  2 31  1  0  0  0  0
  3  2  1  0  0  0  0
  3 32  1  0  0  0  0
  3 33  1  0  0  0  0
  4  3  1  0  0  0  0
  4 34  1  0  0  0  0
  4 35  1  0  0  0  0
  5  4  1  0  0  0  0
  5 36  1  0  0  0  0
  5 37  1  0  0  0  0
  6  5  1  0  0  0  0
  6 38  1  0  0  0  0
  7  6  2  0  0  0  0
  7 39  1  0  0  0  0
  8  7  1  0  0  0  0
  8 40  1  0  0  0  0
  8 41  1  0  0  0  0
  9  8  1  0  0  0  0
  9 42  1  0  0  0  0
 10  9  2  0  0  0  0
 10 43  1  0  0  0  0
 11 10  1  0  0  0  0
 11 44  1  0  0  0  0
 11 45  1  0  0  0  0
 12 11  1  0  0  0  0
 12 46  1  0  0  0  0
 13 12  2  0  0  0  0
 13 47  1  0  0  0  0
 14 13  1  0  0  0  0
 14 48  1  0  0  0  0
 14 49  1  0  0  0  0
 15 14  1  0  0  0  0
 15 50  1  0  0  0  0
 16 15  2  0  0  0  0
 16 51  1  0  0  0  0
 17 16  1  0  0  0  0
 17 52  1  0  0  0  0
 17 53  1  0  0  0  0
 18 17  1  0  0  0  0
 18 54  1  0  0  0  0
 18 55  1  0  0  0  0
 19 18  1  0  0  0  0
 19 56  1  0  0  0  0
 19 57  1  0  0  0  0
 20 19  1  0  0  0  0
 20 58  1  0  0  0  0
 20 59  1  0  0  0  0
 21 20  1  0  0  0  0
 22 21  1  6  0  0  0
 23 22  1  0  0  0  0
 24 22  2  0  0  0  0
 25 22  1  0  0  0  0
 26 25  1  0  0  0  0
 26 60  1  0  0  0  0
 26 61  1  0  0  0  0
 26 62  1  0  0  0  0
M  END
>  <MOL Chiral Flag>
0

>  <energy>
-21.885200784237604

$$$$
