>255.sdf
 OpenBabel10062211573D

 35 38  0  0  0  0  0  0  0  0999 V2000
   -4.9872   -0.5485   -0.7330 C   0  0  0  0  0  0  0  0  0  0  0  0
   -3.8270    0.1818   -0.8641 O   0  0  0  0  0  0  0  0  0  0  0  0
   -2.6314   -0.3403   -1.2471 C   0  0  0  0  0  0  0  0  0  0  0  0
   -1.4515    0.0709   -0.5828 C   0  0  0  0  0  0  0  0  0  0  0  0
   -1.5434    1.0331    0.4182 C   0  0  0  0  0  0  0  0  0  0  0  0
   -0.4321    1.4775    1.1407 C   0  0  0  0  0  0  0  0  0  0  0  0
    0.8526    0.8701    0.9100 C   0  0  0  0  0  0  0  0  0  0  0  0
    2.0398    1.1404    1.7257 C   0  0  0  0  0  0  0  0  0  0  0  0
    3.2805    0.5982    1.3353 C   0  0  0  0  0  0  0  0  0  0  0  0
    3.3429   -0.2266    0.2435 C   0  0  0  0  0  0  0  0  0  0  0  0
    4.4257   -0.8408   -0.2322 O   0  0  0  0  0  0  0  0  0  0  0  0
    4.0463   -1.6244   -1.3165 C   0  0  0  0  0  0  0  0  0  0  0  0
    2.6725   -1.4163   -1.4265 O   0  0  0  0  0  0  0  0  0  0  0  0
    2.2720   -0.5698   -0.4733 C   0  0  0  0  0  0  0  0  0  0  0  0
    0.9742   -0.0719   -0.1916 C   0  0  0  0  0  0  0  0  0  0  0  0
   -0.1925   -0.4755   -0.9325 C   0  0  0  0  0  0  0  0  0  0  0  0
   -0.1606   -1.4241   -1.9920 C   0  0  0  0  0  0  0  0  0  0  0  0
   -1.3268   -1.8109   -2.6500 C   0  0  0  0  0  0  0  0  0  0  0  0
   -2.5542   -1.2848   -2.2790 C   0  0  0  0  0  0  0  0  0  0  0  0
    2.0488    1.8423    3.0531 C   0  0  0  0  0  0  0  0  0  0  0  0
    0.9603    1.8274    3.8470 O   0  0  0  0  0  0  0  0  0  0  0  0
    3.1009    2.2500    3.5223 O   0  0  0  0  0  0  0  0  0  0  0  0
   -0.6426    2.6049    1.9991 N   0  3  0  0  0  0  0  0  0  0  0  0
   -1.8546    2.9045    2.4052 O   0  5  0  0  0  0  0  0  0  0  0  0
    0.1966    3.4626    2.0471 O   0  0  0  0  0  0  0  0  0  0  0  0
   -5.2733   -1.0572   -1.6743 H   0  0  0  0  0  0  0  0  0  0  0  0
   -4.8525   -1.2987    0.0774 H   0  0  0  0  0  0  0  0  0  0  0  0
   -5.8099    0.1339   -0.4368 H   0  0  0  0  0  0  0  0  0  0  0  0
   -2.5051    1.4863    0.6177 H   0  0  0  0  0  0  0  0  0  0  0  0
    4.1835    0.7709    1.9081 H   0  0  0  0  0  0  0  0  0  0  0  0
    4.2602   -2.6954   -1.1143 H   0  0  0  0  0  0  0  0  0  0  0  0
    4.5651   -1.2874   -2.2386 H   0  0  0  0  0  0  0  0  0  0  0  0
    0.7342   -1.8950   -2.3353 H   0  0  0  0  0  0  0  0  0  0  0  0
   -1.2754   -2.5351   -3.4537 H   0  0  0  0  0  0  0  0  0  0  0  0
   -3.4398   -1.6059   -2.8093 H   0  0  0  0  0  0  0  0  0  0  0  0
  1 26  1  0  0  0  0
  1 27  1  0  0  0  0
  1 28  1  0  0  0  0
  2  1  1  0  0  0  0
  3  2  1  0  0  0  0
  4  3  2  0  0  0  0
  5  4  1  0  0  0  0
  5 29  1  0  0  0  0
  6  5  2  0  0  0  0
  7  6  1  0  0  0  0
  8  7  2  0  0  0  0
  9  8  1  0  0  0  0
  9 30  1  0  0  0  0
 10  9  2  0  0  0  0
 11 10  1  0  0  0  0
 12 11  1  0  0  0  0
 12 31  1  0  0  0  0
 12 32  1  0  0  0  0
 13 12  1  0  0  0  0
 14 13  1  0  0  0  0
 14 10  1  0  0  0  0
 15 14  2  0  0  0  0
 15  7  1  0  0  0  0
 16 15  1  0  0  0  0
 16  4  1  0  0  0  0
 17 16  2  0  0  0  0
 17 33  1  0  0  0  0
 18 17  1  0  0  0  0
 18 34  1  0  0  0  0
 19 18  2  0  0  0  0
 19  3  1  0  0  0  0
 19 35  1  0  0  0  0
 20  8  1  0  0  0  0
 21 20  1  0  0  0  0
 22 20  2  0  0  0  0
 23  6  1  0  0  0  0
 24 23  1  0  0  0  0
 25 23  2  0  0  0  0
M  CHG  2  23   1  24  -1
M  END
>  <MOL Chiral Flag>
0

>  <energy>
93.209703471036534

$$$$
