>26.sdf
 OpenBabel10052218013D

 37 39  0  0  0  0  0  0  0  0999 V2000
   -4.6942    2.9487   -0.6952 C   0  0  0  0  0  0  0  0  0  0  0  0
   -3.8026    1.7482   -0.6037 C   0  0  0  0  0  0  0  0  0  0  0  0
   -3.4599    1.0494   -1.7702 C   0  0  0  0  0  0  0  0  0  0  0  0
   -2.6066   -0.0524   -1.7019 C   0  0  0  0  0  0  0  0  0  0  0  0
   -2.0908   -0.4647   -0.4703 C   0  0  0  0  0  0  0  0  0  0  0  0
   -2.4386    0.2188    0.7001 C   0  0  0  0  0  0  0  0  0  0  0  0
   -3.2940    1.3225    0.6352 C   0  0  0  0  0  0  0  0  0  0  0  0
   -0.9409   -1.8272   -0.4198 S   0  0  0  0  0  0  0  0  0  0  0  0
   -1.4722   -3.0699   -1.1498 O   0  0  0  0  0  0  0  0  0  0  0  0
   -0.6829   -2.3688    0.9964 O   0  0  0  0  0  0  0  0  0  0  0  0
    0.5812   -1.5201   -1.1095 O   0  0  0  0  0  0  0  0  0  0  0  0
    1.6942   -1.4278   -0.3530 C   0  0  0  0  0  0  0  0  0  0  0  0
    2.4731   -2.5746   -0.1347 C   0  0  0  0  0  0  0  0  0  0  0  0
    2.0916   -3.8192   -0.7093 N   0  0  0  0  0  0  0  0  0  0  0  0
    3.6314   -2.4775    0.6549 C   0  0  0  0  0  0  0  0  0  0  0  0
    4.3193   -3.4629    0.8585 O   0  0  0  0  0  0  0  0  0  0  0  0
    3.9971   -1.2707    1.2003 N   0  0  0  0  0  0  0  0  0  0  0  0
    3.2606   -0.1422    0.9954 C   0  0  0  0  0  0  0  0  0  0  0  0
    2.0848   -0.1953    0.2097 C   0  0  0  0  0  0  0  0  0  0  0  0
    1.3376    0.9817    0.0053 C   0  0  0  0  0  0  0  0  0  0  0  0
    1.7564    2.1889    0.5743 C   0  0  0  0  0  0  0  0  0  0  0  0
    2.9174    2.2363    1.3488 C   0  0  0  0  0  0  0  0  0  0  0  0
    3.6673    1.0777    1.5603 C   0  0  0  0  0  0  0  0  0  0  0  0
   -4.8712    3.4034    0.3023 H   0  0  0  0  0  0  0  0  0  0  0  0
   -5.6713    2.6588   -1.1343 H   0  0  0  0  0  0  0  0  0  0  0  0
   -4.2142    3.7104   -1.3461 H   0  0  0  0  0  0  0  0  0  0  0  0
   -3.8441    1.3667   -2.7315 H   0  0  0  0  0  0  0  0  0  0  0  0
   -2.3338   -0.5777   -2.6087 H   0  0  0  0  0  0  0  0  0  0  0  0
   -2.0373   -0.0936    1.6558 H   0  0  0  0  0  0  0  0  0  0  0  0
   -3.5485    1.8511    1.5452 H   0  0  0  0  0  0  0  0  0  0  0  0
    1.2493   -3.8941   -1.2978 H   0  0  0  0  0  0  0  0  0  0  0  0
    2.6555   -4.6670   -0.5572 H   0  0  0  0  0  0  0  0  0  0  0  0
    4.8650   -1.2238    1.7829 H   0  0  0  0  0  0  0  0  0  0  0  0
    0.4363    0.9721   -0.5934 H   0  0  0  0  0  0  0  0  0  0  0  0
    1.1805    3.0915    0.4135 H   0  0  0  0  0  0  0  0  0  0  0  0
    3.2384    3.1737    1.7856 H   0  0  0  0  0  0  0  0  0  0  0  0
    4.5665    1.1292    2.1620 H   0  0  0  0  0  0  0  0  0  0  0  0
  1 24  1  0  0  0  0
  1 25  1  0  0  0  0
  1 26  1  0  0  0  0
  2  1  1  0  0  0  0
  3  2  2  0  0  0  0
  3 27  1  0  0  0  0
  4  3  1  0  0  0  0
  4 28  1  0  0  0  0
  5  4  2  0  0  0  0
  6  5  1  0  0  0  0
  6 29  1  0  0  0  0
  7  6  2  0  0  0  0
  7  2  1  0  0  0  0
  7 30  1  0  0  0  0
  8  5  1  0  0  0  0
  9  8  2  0  0  0  0
 10  8  2  0  0  0  0
 11  8  1  0  0  0  0
 12 11  1  0  0  0  0
 13 12  2  0  0  0  0
 14 13  1  0  0  0  0
 14 31  1  0  0  0  0
 14 32  1  0  0  0  0
 15 13  1  0  0  0  0
 16 15  2  0  0  0  0
 17 15  1  0  0  0  0
 17 33  1  0  0  0  0
 18 17  1  0  0  0  0
 19 18  2  0  0  0  0
 19 12  1  0  0  0  0
 20 19  1  0  0  0  0
 20 34  1  0  0  0  0
 21 20  2  0  0  0  0
 21 35  1  0  0  0  0
 22 21  1  0  0  0  0
 22 36  1  0  0  0  0
 23 22  2  0  0  0  0
 23 18  1  0  0  0  0
 23 37  1  0  0  0  0
M  END
>  <MOL Chiral Flag>
0

>  <energy>
91.660993214051501

$$$$
