>264.sdf
 OpenBabel10062212003D

 55 58  0  0  0  0  0  0  0  0999 V2000
    7.5584    0.8448   -1.0529 C   0  0  0  0  0  0  0  0  0  0  0  0
    6.7390   -0.3586   -0.6925 C   0  0  0  0  0  0  0  0  0  0  0  0
    5.3265   -0.3340   -0.7582 C   0  0  0  0  0  0  0  0  0  0  0  0
    4.5883   -1.5012   -0.4523 C   0  0  0  0  0  0  0  0  0  0  0  0
    3.1627   -1.6029   -0.5536 N   0  0  0  0  0  0  0  0  0  0  0  0
    2.2222   -0.6207   -0.6564 C   0  0  0  0  0  0  0  0  0  0  0  0
    2.5086    0.5653   -0.5948 O   0  0  0  0  0  0  0  0  0  0  0  0
    0.9413   -1.0299   -0.8188 O   0  0  0  0  0  0  0  0  0  0  0  0
   -0.3138   -0.4778   -0.6344 C   0  0  1  0  0  0  0  0  0  0  0  0
   -0.5831    0.8322   -1.4127 C   0  0  0  0  0  0  0  0  0  0  0  0
   -1.9189    1.3578   -1.0853 N   0  0  0  0  0  0  0  0  0  0  0  0
   -3.0960    0.8088   -1.7534 C   0  0  0  0  0  0  0  0  0  0  0  0
   -3.9633    1.9575   -2.2437 C   0  0  0  0  0  0  0  0  0  0  0  0
   -4.4652    2.7737   -1.0429 C   0  0  0  0  0  0  0  0  0  0  0  0
   -3.3739    3.0628   -0.0366 C   0  0  0  0  0  0  0  0  0  0  0  0
   -3.6155    4.0086    0.9716 C   0  0  0  0  0  0  0  0  0  0  0  0
   -2.6284    4.3073    1.9093 C   0  0  0  0  0  0  0  0  0  0  0  0
   -1.3941    3.6615    1.8549 C   0  0  0  0  0  0  0  0  0  0  0  0
   -1.1388    2.7053    0.8676 C   0  0  0  0  0  0  0  0  0  0  0  0
   -2.1261    2.3832   -0.0904 C   0  0  0  0  0  0  0  0  0  0  0  0
   -1.2411   -1.5907   -1.0657 C   0  0  0  0  0  0  0  0  0  0  0  0
   -1.0574   -2.1918   -2.3283 C   0  0  0  0  0  0  0  0  0  0  0  0
   -1.8360   -3.2829   -2.7125 C   0  0  0  0  0  0  0  0  0  0  0  0
   -2.8196   -3.7757   -1.8524 C   0  0  0  0  0  0  0  0  0  0  0  0
   -3.7856   -5.1582   -2.3332 Cl  0  0  0  0  0  0  0  0  0  0  0  0
   -3.0233   -3.1743   -0.6045 C   0  0  0  0  0  0  0  0  0  0  0  0
   -2.2311   -2.0909   -0.2059 C   0  0  0  0  0  0  0  0  0  0  0  0
    5.2883   -2.6634   -0.0772 C   0  0  0  0  0  0  0  0  0  0  0  0
    6.6762   -2.6757    0.0051 C   0  0  0  0  0  0  0  0  0  0  0  0
    7.4014   -1.5313   -0.3041 C   0  0  0  0  0  0  0  0  0  0  0  0
    6.9239    1.7027   -1.3551 H   0  0  0  0  0  0  0  0  0  0  0  0
    8.1830    1.1456   -0.1855 H   0  0  0  0  0  0  0  0  0  0  0  0
    8.2297    0.5879   -1.9017 H   0  0  0  0  0  0  0  0  0  0  0  0
    4.8335    0.5711   -1.0767 H   0  0  0  0  0  0  0  0  0  0  0  0
    2.7844   -2.5635   -0.5355 H   0  0  0  0  0  0  0  0  0  0  0  0
   -0.4501   -0.2487    0.4453 H   0  0  0  0  0  0  0  0  0  0  0  0
    0.1915    1.5751   -1.1438 H   0  0  0  0  0  0  0  0  0  0  0  0
   -0.4791    0.7046   -2.5120 H   0  0  0  0  0  0  0  0  0  0  0  0
   -3.6956    0.2105   -1.0317 H   0  0  0  0  0  0  0  0  0  0  0  0
   -2.8083    0.1498   -2.5997 H   0  0  0  0  0  0  0  0  0  0  0  0
   -4.8374    1.5940   -2.8266 H   0  0  0  0  0  0  0  0  0  0  0  0
   -3.3397    2.5979   -2.9049 H   0  0  0  0  0  0  0  0  0  0  0  0
   -4.8929    3.7190   -1.4435 H   0  0  0  0  0  0  0  0  0  0  0  0
   -5.2734    2.2305   -0.5054 H   0  0  0  0  0  0  0  0  0  0  0  0
   -4.5695    4.5204    1.0230 H   0  0  0  0  0  0  0  0  0  0  0  0
   -2.8214    5.0413    2.6817 H   0  0  0  0  0  0  0  0  0  0  0  0
   -0.6344    3.8934    2.5900 H   0  0  0  0  0  0  0  0  0  0  0  0
   -0.1816    2.2081    0.8819 H   0  0  0  0  0  0  0  0  0  0  0  0
   -0.2833   -1.8341   -2.9976 H   0  0  0  0  0  0  0  0  0  0  0  0
   -1.6639   -3.7524   -3.6733 H   0  0  0  0  0  0  0  0  0  0  0  0
   -3.7850   -3.5563    0.0618 H   0  0  0  0  0  0  0  0  0  0  0  0
   -2.3852   -1.6463    0.7687 H   0  0  0  0  0  0  0  0  0  0  0  0
    4.7447   -3.5713    0.1550 H   0  0  0  0  0  0  0  0  0  0  0  0
    7.1901   -3.5821    0.2993 H   0  0  0  0  0  0  0  0  0  0  0  0
    8.4832   -1.5598   -0.2511 H   0  0  0  0  0  0  0  0  0  0  0  0
  1 31  1  0  0  0  0
  1 32  1  0  0  0  0
  1 33  1  0  0  0  0
  2  1  1  0  0  0  0
  3  2  2  0  0  0  0
  3 34  1  0  0  0  0
  4  3  1  0  0  0  0
  5  4  1  0  0  0  0
  5 35  1  0  0  0  0
  6  5  1  0  0  0  0
  7  6  2  0  0  0  0
  8  6  1  0  0  0  0
  9  8  1  0  0  0  0
  9 36  1  1  0  0  0
 10  9  1  0  0  0  0
 10 37  1  0  0  0  0
 10 38  1  0  0  0  0
 11 10  1  0  0  0  0
 12 11  1  0  0  0  0
 12 39  1  0  0  0  0
 12 40  1  0  0  0  0
 13 12  1  0  0  0  0
 13 41  1  0  0  0  0
 13 42  1  0  0  0  0
 14 13  1  0  0  0  0
 14 43  1  0  0  0  0
 14 44  1  0  0  0  0
 15 14  1  0  0  0  0
 16 15  2  0  0  0  0
 16 45  1  0  0  0  0
 17 16  1  0  0  0  0
 17 46  1  0  0  0  0
 18 17  2  0  0  0  0
 18 47  1  0  0  0  0
 19 18  1  0  0  0  0
 19 48  1  0  0  0  0
 20 19  2  0  0  0  0
 20 11  1  0  0  0  0
 20 15  1  0  0  0  0
 21  9  1  0  0  0  0
 22 21  2  0  0  0  0
 22 49  1  0  0  0  0
 23 22  1  0  0  0  0
 23 50  1  0  0  0  0
 24 23  2  0  0  0  0
 25 24  1  0  0  0  0
 26 24  1  0  0  0  0
 26 51  1  0  0  0  0
 27 26  2  0  0  0  0
 27 21  1  0  0  0  0
 27 52  1  0  0  0  0
 28  4  2  0  0  0  0
 28 53  1  0  0  0  0
 29 28  1  0  0  0  0
 29 54  1  0  0  0  0
 30 29  2  0  0  0  0
 30  2  1  0  0  0  0
 30 55  1  0  0  0  0
M  END
>  <MOL Chiral Flag>
0

>  <energy>
59.467571251117924

$$$$
