>265.sdf
 OpenBabel10062212003D

 40 43  0  0  0  0  0  0  0  0999 V2000
   -5.2960   -0.3917   -2.2765 C   0  0  0  0  0  0  0  0  0  0  0  0
   -5.2285   -1.4293   -1.3667 O   0  0  0  0  0  0  0  0  0  0  0  0
   -4.1516   -1.6923   -0.5805 C   0  0  0  0  0  0  0  0  0  0  0  0
   -3.0795   -0.7872   -0.4567 C   0  0  0  0  0  0  0  0  0  0  0  0
   -1.9429   -1.1291    0.2859 C   0  0  0  0  0  0  0  0  0  0  0  0
   -1.8845   -2.3749    0.9317 C   0  0  0  0  0  0  0  0  0  0  0  0
   -2.9701   -3.2521    0.8576 C   0  0  0  0  0  0  0  0  0  0  0  0
   -4.0969   -2.9137    0.1022 C   0  0  0  0  0  0  0  0  0  0  0  0
   -0.8316   -0.1685    0.3820 C   0  0  0  0  0  0  0  0  0  0  0  0
   -1.1114    1.1395    0.6281 N   0  0  0  0  0  0  0  0  0  0  0  0
   -0.1336    2.0669    0.7659 C   0  0  0  0  0  0  0  0  0  0  0  0
   -0.4618    3.3938    1.0463 C   0  0  0  0  0  0  0  0  0  0  0  0
    0.5506    4.3436    1.1639 C   0  0  0  0  0  0  0  0  0  0  0  0
    1.8833    3.9543    0.9953 C   0  0  0  0  0  0  0  0  0  0  0  0
    2.1904    2.6533    0.7280 N   0  0  0  0  0  0  0  0  0  0  0  0
    1.2216    1.7021    0.6191 C   0  0  0  0  0  0  0  0  0  0  0  0
    1.5377    0.3616    0.3155 C   0  0  0  0  0  0  0  0  0  0  0  0
    0.4996   -0.5761    0.2129 C   0  0  0  0  0  0  0  0  0  0  0  0
    2.9303   -0.0765    0.0734 C   0  0  0  0  0  0  0  0  0  0  0  0
    3.9152    0.0636    1.0632 C   0  0  0  0  0  0  0  0  0  0  0  0
    5.2194   -0.3853    0.8225 C   0  0  0  0  0  0  0  0  0  0  0  0
    5.5531   -0.9450   -0.4151 C   0  0  0  0  0  0  0  0  0  0  0  0
    4.5815   -1.0691   -1.4109 C   0  0  0  0  0  0  0  0  0  0  0  0
    3.2708   -0.6513   -1.1644 C   0  0  0  0  0  0  0  0  0  0  0  0
   -4.4634   -0.4796   -3.0103 H   0  0  0  0  0  0  0  0  0  0  0  0
   -5.2439    0.5898   -1.7607 H   0  0  0  0  0  0  0  0  0  0  0  0
   -6.2530   -0.4536   -2.8320 H   0  0  0  0  0  0  0  0  0  0  0  0
   -3.1028    0.1670   -0.9661 H   0  0  0  0  0  0  0  0  0  0  0  0
   -1.0179   -2.6494    1.5209 H   0  0  0  0  0  0  0  0  0  0  0  0
   -2.9355   -4.2000    1.3794 H   0  0  0  0  0  0  0  0  0  0  0  0
   -4.9227   -3.6101    0.0312 H   0  0  0  0  0  0  0  0  0  0  0  0
   -1.4980    3.6861    1.1693 H   0  0  0  0  0  0  0  0  0  0  0  0
    0.3040    5.3756    1.3787 H   0  0  0  0  0  0  0  0  0  0  0  0
    2.6726    4.6887    1.0756 H   0  0  0  0  0  0  0  0  0  0  0  0
    0.7261   -1.6127   -0.0106 H   0  0  0  0  0  0  0  0  0  0  0  0
    3.6650    0.4887    2.0269 H   0  0  0  0  0  0  0  0  0  0  0  0
    5.9716   -0.3013    1.5955 H   0  0  0  0  0  0  0  0  0  0  0  0
    6.5641   -1.2834   -0.6027 H   0  0  0  0  0  0  0  0  0  0  0  0
    4.8428   -1.4918   -2.3730 H   0  0  0  0  0  0  0  0  0  0  0  0
    2.5258   -0.7503   -1.9451 H   0  0  0  0  0  0  0  0  0  0  0  0
  1 25  1  0  0  0  0
  1 26  1  0  0  0  0
  1 27  1  0  0  0  0
  2  1  1  0  0  0  0
  3  2  1  0  0  0  0
  4  3  2  0  0  0  0
  4 28  1  0  0  0  0
  5  4  1  0  0  0  0
  6  5  2  0  0  0  0
  6 29  1  0  0  0  0
  7  6  1  0  0  0  0
  7 30  1  0  0  0  0
  8  7  2  0  0  0  0
  8  3  1  0  0  0  0
  8 31  1  0  0  0  0
  9  5  1  0  0  0  0
 10  9  2  0  0  0  0
 11 10  1  0  0  0  0
 12 11  2  0  0  0  0
 12 32  1  0  0  0  0
 13 12  1  0  0  0  0
 13 33  1  0  0  0  0
 14 13  2  0  0  0  0
 14 34  1  0  0  0  0
 15 14  1  0  0  0  0
 16 15  2  0  0  0  0
 16 11  1  0  0  0  0
 17 16  1  0  0  0  0
 18 17  2  0  0  0  0
 18  9  1  0  0  0  0
 18 35  1  0  0  0  0
 19 17  1  0  0  0  0
 20 19  2  0  0  0  0
 20 36  1  0  0  0  0
 21 20  1  0  0  0  0
 21 37  1  0  0  0  0
 22 21  2  0  0  0  0
 22 38  1  0  0  0  0
 23 22  1  0  0  0  0
 23 39  1  0  0  0  0
 24 23  2  0  0  0  0
 24 19  1  0  0  0  0
 24 40  1  0  0  0  0
M  END
>  <MOL Chiral Flag>
0

>  <energy>
103.68400799443474

$$$$
