>266.sdf
 OpenBabel10062212013D

 47 48  0  0  0  0  0  0  0  0999 V2000
   -3.0336   -1.6326    0.5660 C   0  0  0  0  0  0  0  0  0  0  0  0
   -2.0526   -0.6929    0.8076 O   0  0  0  0  0  0  0  0  0  0  0  0
   -0.7773   -0.7240    0.3405 C   0  0  0  0  0  0  0  0  0  0  0  0
   -0.3743   -1.7189   -0.5647 C   0  0  0  0  0  0  0  0  0  0  0  0
    0.9432   -1.8085   -1.0239 C   0  0  0  0  0  0  0  0  0  0  0  0
    1.2485   -2.7973   -1.8875 O   0  0  0  0  0  0  0  0  0  0  0  0
    1.9248   -0.8839   -0.5649 C   0  0  0  0  0  0  0  0  0  0  0  0
    1.5039    0.1162    0.3479 C   0  0  0  0  0  0  0  0  0  0  0  0
    0.1734    0.2256    0.7940 C   0  0  0  0  0  0  0  0  0  0  0  0
   -0.1351    1.3438    1.7556 C   0  0  0  0  0  0  0  0  0  0  0  0
   -1.3714    1.7877    2.0783 C   0  0  0  0  0  0  0  0  0  0  0  0
   -1.5883    2.8993    3.0513 C   0  0  0  0  0  0  0  0  0  0  0  0
   -0.6222    3.3591    3.6458 O   0  0  0  0  0  0  0  0  0  0  0  0
   -2.9504    3.4705    3.3310 C   0  0  0  0  0  0  0  0  0  0  0  0
   -4.1067    3.0512    2.6314 C   0  0  0  0  0  0  0  0  0  0  0  0
   -5.3522    3.6221    2.9082 C   0  0  0  0  0  0  0  0  0  0  0  0
   -5.4751    4.6145    3.8808 C   0  0  0  0  0  0  0  0  0  0  0  0
   -6.6840    5.1593    4.1274 O   0  0  0  0  0  0  0  0  0  0  0  0
   -4.3421    5.0362    4.5869 C   0  0  0  0  0  0  0  0  0  0  0  0
   -3.0919    4.4717    4.3151 C   0  0  0  0  0  0  0  0  0  0  0  0
    3.4264   -0.9091   -0.9914 C   0  0  0  0  0  0  0  0  0  0  0  0
    3.7962   -2.0336   -1.9977 C   0  0  0  0  0  0  0  0  0  0  0  0
    4.2865   -1.1676    0.2661 C   0  0  0  0  0  0  0  0  0  0  0  0
    3.8008    0.4752   -1.5485 C   0  0  0  0  0  0  0  0  0  0  0  0
    4.2554    0.7223   -2.7883 C   0  0  0  0  0  0  0  0  0  0  0  0
   -3.9572   -1.3320    1.1014 H   0  0  0  0  0  0  0  0  0  0  0  0
   -2.7110   -2.6233    0.9525 H   0  0  0  0  0  0  0  0  0  0  0  0
   -3.2594   -1.6930   -0.5192 H   0  0  0  0  0  0  0  0  0  0  0  0
   -1.0885   -2.4494   -0.9191 H   0  0  0  0  0  0  0  0  0  0  0  0
    0.5928   -3.4411   -2.1925 H   0  0  0  0  0  0  0  0  0  0  0  0
    2.2228    0.8358    0.7158 H   0  0  0  0  0  0  0  0  0  0  0  0
    0.7163    1.8522    2.2014 H   0  0  0  0  0  0  0  0  0  0  0  0
   -2.2300    1.3560    1.6188 H   0  0  0  0  0  0  0  0  0  0  0  0
   -4.0704    2.2967    1.8650 H   0  0  0  0  0  0  0  0  0  0  0  0
   -6.2257    3.2935    2.3584 H   0  0  0  0  0  0  0  0  0  0  0  0
   -6.8035    5.8581    4.7862 H   0  0  0  0  0  0  0  0  0  0  0  0
   -4.4287    5.8046    5.3447 H   0  0  0  0  0  0  0  0  0  0  0  0
   -2.2330    4.8198    4.8748 H   0  0  0  0  0  0  0  0  0  0  0  0
    4.8798   -1.9992   -2.2447 H   0  0  0  0  0  0  0  0  0  0  0  0
    3.2327   -1.9288   -2.9496 H   0  0  0  0  0  0  0  0  0  0  0  0
    3.6104   -3.0402   -1.5654 H   0  0  0  0  0  0  0  0  0  0  0  0
    5.3687   -1.1764    0.0113 H   0  0  0  0  0  0  0  0  0  0  0  0
    4.0265   -2.1521    0.7139 H   0  0  0  0  0  0  0  0  0  0  0  0
    4.1359   -0.3909    1.0437 H   0  0  0  0  0  0  0  0  0  0  0  0
    3.6981    1.3326   -0.8912 H   0  0  0  0  0  0  0  0  0  0  0  0
    4.3955   -0.0536   -3.5295 H   0  0  0  0  0  0  0  0  0  0  0  0
    4.4937    1.7419   -3.0741 H   0  0  0  0  0  0  0  0  0  0  0  0
  1 26  1  0  0  0  0
  1 27  1  0  0  0  0
  1 28  1  0  0  0  0
  2  1  1  0  0  0  0
  3  2  1  0  0  0  0
  4  3  2  0  0  0  0
  4 29  1  0  0  0  0
  5  4  1  0  0  0  0
  6  5  1  0  0  0  0
  6 30  1  0  0  0  0
  7  5  2  0  0  0  0
  8  7  1  0  0  0  0
  8 31  1  0  0  0  0
  9  8  2  0  0  0  0
  9  3  1  0  0  0  0
 10  9  1  0  0  0  0
 10 32  1  0  0  0  0
 11 10  2  0  0  0  0
 11 33  1  0  0  0  0
 12 11  1  0  0  0  0
 13 12  2  0  0  0  0
 14 12  1  0  0  0  0
 15 14  2  0  0  0  0
 15 34  1  0  0  0  0
 16 15  1  0  0  0  0
 16 35  1  0  0  0  0
 17 16  2  0  0  0  0
 18 17  1  0  0  0  0
 18 36  1  0  0  0  0
 19 17  1  0  0  0  0
 19 37  1  0  0  0  0
 20 19  2  0  0  0  0
 20 14  1  0  0  0  0
 20 38  1  0  0  0  0
 21  7  1  0  0  0  0
 22 21  1  0  0  0  0
 22 39  1  0  0  0  0
 22 40  1  0  0  0  0
 22 41  1  0  0  0  0
 23 21  1  0  0  0  0
 23 42  1  0  0  0  0
 23 43  1  0  0  0  0
 23 44  1  0  0  0  0
 24 21  1  0  0  0  0
 24 45  1  0  0  0  0
 25 24  2  0  0  0  0
 25 46  1  0  0  0  0
 25 47  1  0  0  0  0
M  END
>  <MOL Chiral Flag>
0

>  <energy>
111.44522427670456

$$$$
