>270.sdf
 OpenBabel10102214083D

 59 61  0  0  0  0  0  0  0  0999 V2000
   -3.5590    3.7152   -0.9499 C   0  0  0  0  0  0  0  0  0  0  0  0
   -2.5568    3.9053    0.1647 C   0  0  0  0  0  0  0  0  0  0  0  0
   -1.8747    5.2505    0.2372 C   0  0  0  0  0  0  0  0  0  0  0  0
   -2.2306    2.9593    1.0819 C   0  0  0  0  0  0  0  0  0  0  0  0
   -2.7820    1.5433    1.1803 C   0  0  0  0  0  0  0  0  0  0  0  0
   -1.6423    0.5308    1.0485 C   0  0  0  0  0  0  0  0  0  0  0  0
   -1.5499   -0.3816   -0.0385 C   0  0  0  0  0  0  0  0  0  0  0  0
   -2.4728   -0.4125   -1.0314 O   0  0  0  0  0  0  0  0  0  0  0  0
   -0.4608   -1.2805   -0.1248 C   0  0  0  0  0  0  0  0  0  0  0  0
   -0.4010   -2.2432   -1.2984 C   0  0  0  0  0  0  0  0  0  0  0  0
   -1.5748   -3.2042   -1.2206 C   0  0  0  0  0  0  0  0  0  0  0  0
   -2.5977   -3.3195   -2.1124 C   0  0  0  0  0  0  0  0  0  0  0  0
   -2.7444   -2.4867   -3.3674 C   0  0  0  0  0  0  0  0  0  0  0  0
   -3.6903   -4.3259   -1.8470 C   0  0  0  0  0  0  0  0  0  0  0  0
    0.5593   -1.2531    0.8540 C   0  0  0  0  0  0  0  0  0  0  0  0
    1.6480   -2.0813    0.7526 O   0  0  0  0  0  0  0  0  0  0  0  0
    2.8806   -1.6791    1.2575 C   0  0  1  0  0  0  0  0  0  0  0  0
    2.7428   -1.2900    2.7388 C   0  0  0  0  0  0  0  0  0  0  0  0
    1.5370   -0.4514    2.9880 C   0  0  0  0  0  0  0  0  0  0  0  0
    1.4076    0.0438    4.0938 O   0  0  0  0  0  0  0  0  0  0  0  0
    0.4628   -0.3638    1.9521 C   0  0  0  0  0  0  0  0  0  0  0  0
   -0.6490    0.5181    2.0530 C   0  0  0  0  0  0  0  0  0  0  0  0
   -0.7992    1.3768    3.0916 O   0  0  0  0  0  0  0  0  0  0  0  0
    4.0079   -2.6901    1.0119 C   0  0  0  0  0  0  0  0  0  0  0  0
    4.9214   -3.0497    2.0351 C   0  0  0  0  0  0  0  0  0  0  0  0
    5.9765   -3.9213    1.7793 C   0  0  0  0  0  0  0  0  0  0  0  0
    6.1466   -4.4696    0.5069 C   0  0  0  0  0  0  0  0  0  0  0  0
    7.1745   -5.3094    0.2615 O   0  0  0  0  0  0  0  0  0  0  0  0
    5.2496   -4.1402   -0.5185 C   0  0  0  0  0  0  0  0  0  0  0  0
    5.4162   -4.6822   -1.7426 O   0  0  0  0  0  0  0  0  0  0  0  0
    4.1895   -3.2448   -0.2689 C   0  0  0  0  0  0  0  0  0  0  0  0
   -4.3609    4.4754   -0.8429 H   0  0  0  0  0  0  0  0  0  0  0  0
   -4.0472    2.7302   -1.0012 H   0  0  0  0  0  0  0  0  0  0  0  0
   -3.0487    3.8763   -1.9223 H   0  0  0  0  0  0  0  0  0  0  0  0
   -1.3236    5.4367   -0.7083 H   0  0  0  0  0  0  0  0  0  0  0  0
   -1.1454    5.3199    1.0737 H   0  0  0  0  0  0  0  0  0  0  0  0
   -2.6336    6.0476    0.3779 H   0  0  0  0  0  0  0  0  0  0  0  0
   -1.4922    3.2371    1.8240 H   0  0  0  0  0  0  0  0  0  0  0  0
   -3.5928    1.3707    0.4742 H   0  0  0  0  0  0  0  0  0  0  0  0
   -3.2652    1.4104    2.1718 H   0  0  0  0  0  0  0  0  0  0  0  0
   -3.2395    0.1616   -1.1178 H   0  0  0  0  0  0  0  0  0  0  0  0
    0.5253   -2.8537   -1.2883 H   0  0  0  0  0  0  0  0  0  0  0  0
   -0.3625   -1.6427   -2.2229 H   0  0  0  0  0  0  0  0  0  0  0  0
   -1.5888   -3.8468   -0.3443 H   0  0  0  0  0  0  0  0  0  0  0  0
   -1.9508   -1.7457   -3.5494 H   0  0  0  0  0  0  0  0  0  0  0  0
   -2.7803   -3.1593   -4.2498 H   0  0  0  0  0  0  0  0  0  0  0  0
   -3.7039   -1.9284   -3.3173 H   0  0  0  0  0  0  0  0  0  0  0  0
   -4.6648   -3.7996   -1.7606 H   0  0  0  0  0  0  0  0  0  0  0  0
   -3.7469   -5.0466   -2.6894 H   0  0  0  0  0  0  0  0  0  0  0  0
   -3.5269   -4.8997   -0.9100 H   0  0  0  0  0  0  0  0  0  0  0  0
    3.1539   -0.7623    0.6855 H   0  0  0  0  0  0  0  0  0  0  0  0
    2.6346   -2.1903    3.3822 H   0  0  0  0  0  0  0  0  0  0  0  0
    3.6501   -0.7177    3.0323 H   0  0  0  0  0  0  0  0  0  0  0  0
   -0.1772    1.5464    3.8022 H   0  0  0  0  0  0  0  0  0  0  0  0
    4.8507   -2.6454    3.0328 H   0  0  0  0  0  0  0  0  0  0  0  0
    6.6696   -4.1644    2.5759 H   0  0  0  0  0  0  0  0  0  0  0  0
    7.8189   -5.5382    0.9479 H   0  0  0  0  0  0  0  0  0  0  0  0
    4.8112   -4.4918   -2.4725 H   0  0  0  0  0  0  0  0  0  0  0  0
    3.5098   -2.9845   -1.0708 H   0  0  0  0  0  0  0  0  0  0  0  0
  1 32  1  0  0  0  0
  1 33  1  0  0  0  0
  1 34  1  0  0  0  0
  2  1  1  0  0  0  0
  3  2  1  0  0  0  0
  3 35  1  0  0  0  0
  3 36  1  0  0  0  0
  3 37  1  0  0  0  0
  4  2  2  0  0  0  0
  4 38  1  0  0  0  0
  5  4  1  0  0  0  0
  5 39  1  0  0  0  0
  5 40  1  0  0  0  0
  6  5  1  0  0  0  0
  7  6  2  0  0  0  0
  8  7  1  0  0  0  0
  8 41  1  0  0  0  0
  9  7  1  0  0  0  0
 10  9  1  0  0  0  0
 10 42  1  0  0  0  0
 10 43  1  0  0  0  0
 11 10  1  0  0  0  0
 11 44  1  0  0  0  0
 12 11  2  0  0  0  0
 13 12  1  0  0  0  0
 13 45  1  0  0  0  0
 13 46  1  0  0  0  0
 13 47  1  0  0  0  0
 14 12  1  0  0  0  0
 14 48  1  0  0  0  0
 14 49  1  0  0  0  0
 14 50  1  0  0  0  0
 15  9  2  0  0  0  0
 16 15  1  0  0  0  0
 17 16  1  0  0  0  0
 17 51  1  6  0  0  0
 18 17  1  0  0  0  0
 18 52  1  0  0  0  0
 18 53  1  0  0  0  0
 19 18  1  0  0  0  0
 20 19  2  0  0  0  0
 21 19  1  0  0  0  0
 21 15  1  0  0  0  0
 22 21  2  0  0  0  0
 22  6  1  0  0  0  0
 23 22  1  0  0  0  0
 23 54  1  0  0  0  0
 24 17  1  0  0  0  0
 25 24  2  0  0  0  0
 25 55  1  0  0  0  0
 26 25  1  0  0  0  0
 26 56  1  0  0  0  0
 27 26  2  0  0  0  0
 28 27  1  0  0  0  0
 28 57  1  0  0  0  0
 29 27  1  0  0  0  0
 30 29  1  0  0  0  0
 30 58  1  0  0  0  0
 31 29  2  0  0  0  0
 31 24  1  0  0  0  0
 31 59  1  0  0  0  0
M  END
>  <MOL Chiral Flag>
0

>  <energy>
62.654769552113706

$$$$
