>272.sdf
 OpenBabel10062212053D

 46 49  0  0  0  0  0  0  0  0999 V2000
    7.8585   -2.2191   -4.7604 O   0  0  0  0  0  0  0  0  0  0  0  0
    7.8369   -1.8875   -3.5876 C   0  0  0  0  0  0  0  0  0  0  0  0
    9.0255   -1.5290   -2.9451 C   0  0  0  0  0  0  0  0  0  0  0  0
    8.9862   -1.1502   -1.6022 C   0  0  0  0  0  0  0  0  0  0  0  0
    7.8345   -1.1293   -0.9404 O   0  0  0  0  0  0  0  0  0  0  0  0
    6.6780   -1.4588   -1.5111 C   0  0  0  0  0  0  0  0  0  0  0  0
    5.5071   -1.4029   -0.7616 C   0  0  0  0  0  0  0  0  0  0  0  0
    4.2728   -1.7220   -1.3309 C   0  0  0  0  0  0  0  0  0  0  0  0
    3.1840   -1.6165   -0.5344 O   0  0  0  0  0  0  0  0  0  0  0  0
    1.8469   -1.7328   -0.8521 C   0  0  0  0  0  0  0  0  0  0  0  0
    1.1014   -1.4829    0.4610 C   0  0  0  0  0  0  0  0  0  0  0  0
   -0.4277   -1.5225    0.3834 C   0  0  0  0  0  0  0  0  0  0  0  0
   -0.9964   -1.3400    1.8037 C   0  0  0  0  0  0  0  0  0  0  0  0
   -2.3647   -1.5251    1.8321 O   0  0  0  0  0  0  0  0  0  0  0  0
   -3.3690   -0.7274    1.3741 C   0  0  0  0  0  0  0  0  0  0  0  0
   -3.2536    0.6754    1.1604 C   0  0  0  0  0  0  0  0  0  0  0  0
   -2.0946    1.3437    1.4167 N   0  0  0  0  0  0  0  0  0  0  0  0
   -1.9806    2.6886    1.2402 C   0  0  0  0  0  0  0  0  0  0  0  0
   -3.0673    3.4318    0.7778 C   0  0  0  0  0  0  0  0  0  0  0  0
   -4.2707    2.7867    0.5019 C   0  0  0  0  0  0  0  0  0  0  0  0
   -4.3791    1.4040    0.6956 C   0  0  0  0  0  0  0  0  0  0  0  0
   -5.5889    0.7459    0.4441 C   0  0  0  0  0  0  0  0  0  0  0  0
   -5.6958   -0.6246    0.6645 C   0  0  0  0  0  0  0  0  0  0  0  0
   -4.5998   -1.3493    1.1298 C   0  0  0  0  0  0  0  0  0  0  0  0
    4.2113   -2.1226   -2.6798 C   0  0  0  0  0  0  0  0  0  0  0  0
    5.3887   -2.1913   -3.4442 C   0  0  0  0  0  0  0  0  0  0  0  0
    6.6303   -1.8532   -2.8648 C   0  0  0  0  0  0  0  0  0  0  0  0
    9.9696   -1.5408   -3.4759 H   0  0  0  0  0  0  0  0  0  0  0  0
    9.8982   -0.8684   -1.0925 H   0  0  0  0  0  0  0  0  0  0  0  0
    5.5509   -1.0957    0.2760 H   0  0  0  0  0  0  0  0  0  0  0  0
    1.5658   -0.9676   -1.6082 H   0  0  0  0  0  0  0  0  0  0  0  0
    1.6228   -2.7500   -1.2436 H   0  0  0  0  0  0  0  0  0  0  0  0
    1.4408   -2.2615    1.1807 H   0  0  0  0  0  0  0  0  0  0  0  0
    1.4045   -0.4862    0.8510 H   0  0  0  0  0  0  0  0  0  0  0  0
   -0.8054   -0.7255   -0.2931 H   0  0  0  0  0  0  0  0  0  0  0  0
   -0.7491   -2.5117   -0.0100 H   0  0  0  0  0  0  0  0  0  0  0  0
   -0.6909   -0.3831    2.2712 H   0  0  0  0  0  0  0  0  0  0  0  0
   -0.5602   -2.1392    2.4403 H   0  0  0  0  0  0  0  0  0  0  0  0
   -1.0448    3.1839    1.4624 H   0  0  0  0  0  0  0  0  0  0  0  0
   -2.9788    4.5018    0.6378 H   0  0  0  0  0  0  0  0  0  0  0  0
   -5.1171    3.3636    0.1473 H   0  0  0  0  0  0  0  0  0  0  0  0
   -6.4521    1.2949    0.0874 H   0  0  0  0  0  0  0  0  0  0  0  0
   -6.6339   -1.1303    0.4776 H   0  0  0  0  0  0  0  0  0  0  0  0
   -4.7027   -2.4139    1.2999 H   0  0  0  0  0  0  0  0  0  0  0  0
    3.2654   -2.3788   -3.1392 H   0  0  0  0  0  0  0  0  0  0  0  0
    5.3306   -2.4992   -4.4813 H   0  0  0  0  0  0  0  0  0  0  0  0
  2  1  2  0  0  0  0
  3  2  1  0  0  0  0
  3 28  1  0  0  0  0
  4  3  2  0  0  0  0
  4 29  1  0  0  0  0
  5  4  1  0  0  0  0
  6  5  1  0  0  0  0
  7  6  2  0  0  0  0
  7 30  1  0  0  0  0
  8  7  1  0  0  0  0
  9  8  1  0  0  0  0
 10  9  1  0  0  0  0
 10 31  1  0  0  0  0
 10 32  1  0  0  0  0
 11 10  1  0  0  0  0
 11 33  1  0  0  0  0
 11 34  1  0  0  0  0
 12 11  1  0  0  0  0
 12 35  1  0  0  0  0
 12 36  1  0  0  0  0
 13 12  1  0  0  0  0
 13 37  1  0  0  0  0
 13 38  1  0  0  0  0
 14 13  1  0  0  0  0
 15 14  1  0  0  0  0
 16 15  2  0  0  0  0
 17 16  1  0  0  0  0
 18 17  2  0  0  0  0
 18 39  1  0  0  0  0
 19 18  1  0  0  0  0
 19 40  1  0  0  0  0
 20 19  2  0  0  0  0
 20 41  1  0  0  0  0
 21 20  1  0  0  0  0
 21 16  1  0  0  0  0
 22 21  2  0  0  0  0
 22 42  1  0  0  0  0
 23 22  1  0  0  0  0
 23 43  1  0  0  0  0
 24 23  2  0  0  0  0
 24 15  1  0  0  0  0
 24 44  1  0  0  0  0
 25  8  2  0  0  0  0
 25 45  1  0  0  0  0
 26 25  1  0  0  0  0
 26 46  1  0  0  0  0
 27 26  2  0  0  0  0
 27  2  1  0  0  0  0
 27  6  1  0  0  0  0
M  END
>  <MOL Chiral Flag>
0

>  <energy>
99.502389078964612

$$$$
