>273.sdf
 OpenBabel10062212063D

 57 59  0  0  0  0  0  0  0  0999 V2000
   -3.8710   -5.8771   -4.4400 C   0  0  0  0  0  0  0  0  0  0  0  0
   -5.1206   -5.5082   -3.6888 C   0  0  0  0  0  0  0  0  0  0  0  0
   -6.2045   -5.8180   -4.1570 O   0  0  0  0  0  0  0  0  0  0  0  0
   -5.0504   -4.8000   -2.3906 C   0  0  0  0  0  0  0  0  0  0  0  0
   -6.1065   -4.4351   -1.5192 C   0  0  0  0  0  0  0  0  0  0  0  0
   -7.5550   -4.6991   -1.7894 C   0  0  0  0  0  0  0  0  0  0  0  0
   -5.7035   -3.8033   -0.3596 N   0  0  0  0  0  0  0  0  0  0  0  0
   -4.3564   -3.6518   -0.3086 C   0  0  0  0  0  0  0  0  0  0  0  0
   -3.6735   -3.0480    0.7636 N   0  0  0  0  0  0  0  0  0  0  0  0
   -2.3258   -2.7752    0.6634 N   0  0  0  0  0  0  0  0  0  0  0  0
   -1.6911   -2.2906    1.6675 C   0  0  0  0  0  0  0  0  0  0  0  0
   -0.2836   -1.8124    1.5851 C   0  0  0  0  0  0  0  0  0  0  0  0
    0.5347   -1.9203    0.4275 C   0  0  0  0  0  0  0  0  0  0  0  0
   -0.0003   -2.5865   -0.6207 O   0  0  0  0  0  0  0  0  0  0  0  0
    1.8625   -1.3212    0.4347 C   0  0  0  0  0  0  0  0  0  0  0  0
    2.2745   -0.6815    1.6425 C   0  0  0  0  0  0  0  0  0  0  0  0
    1.4512   -0.6194    2.7750 C   0  0  0  0  0  0  0  0  0  0  0  0
    1.8207    0.0552    4.0494 C   0  0  0  0  0  0  0  0  0  0  0  0
    2.9228    0.7947    4.2620 C   0  0  0  0  0  0  0  0  0  0  0  0
    3.1419    1.4381    5.5877 C   0  0  0  0  0  0  0  0  0  0  0  0
    2.3494    1.2419    6.4984 O   0  0  0  0  0  0  0  0  0  0  0  0
    4.2862    2.3283    5.8405 C   0  0  0  0  0  0  0  0  0  0  0  0
    5.2684    2.7131    4.9485 C   0  0  0  0  0  0  0  0  0  0  0  0
    6.1032    3.5538    5.6506 C   0  0  0  0  0  0  0  0  0  0  0  0
    5.5861    3.6353    6.9269 C   0  0  0  0  0  0  0  0  0  0  0  0
    4.5049    2.8957    7.0055 O   0  0  0  0  0  0  0  0  0  0  0  0
    0.1934   -1.1853    2.7243 C   0  0  0  0  0  0  0  0  0  0  0  0
    2.8944   -1.2470   -0.7542 C   0  0  0  0  0  0  0  0  0  0  0  0
    2.4925   -1.8820   -2.1029 C   0  0  0  0  0  0  0  0  0  0  0  0
    4.2206   -1.9307   -0.3370 C   0  0  0  0  0  0  0  0  0  0  0  0
    3.1702    0.2482   -1.0703 C   0  0  0  0  0  0  0  0  0  0  0  0
   -3.6608   -4.2829   -1.6558 S   0  0  0  0  0  0  0  0  0  0  0  0
   -3.8274   -6.9794   -4.5596 H   0  0  0  0  0  0  0  0  0  0  0  0
   -3.8798   -5.3973   -5.4395 H   0  0  0  0  0  0  0  0  0  0  0  0
   -2.9479   -5.5588   -3.9144 H   0  0  0  0  0  0  0  0  0  0  0  0
   -7.8638   -4.1848   -2.7235 H   0  0  0  0  0  0  0  0  0  0  0  0
   -8.1793   -4.3143   -0.9547 H   0  0  0  0  0  0  0  0  0  0  0  0
   -7.7295   -5.7902   -1.8880 H   0  0  0  0  0  0  0  0  0  0  0  0
   -4.2099   -2.7446    1.5911 H   0  0  0  0  0  0  0  0  0  0  0  0
   -2.2293   -2.1326    2.5999 H   0  0  0  0  0  0  0  0  0  0  0  0
    0.4317   -2.9001   -1.4101 H   0  0  0  0  0  0  0  0  0  0  0  0
    3.2457   -0.2231    1.6956 H   0  0  0  0  0  0  0  0  0  0  0  0
    1.1119   -0.0435    4.8679 H   0  0  0  0  0  0  0  0  0  0  0  0
    3.6463    0.9479    3.4737 H   0  0  0  0  0  0  0  0  0  0  0  0
    5.3720    2.4269    3.9112 H   0  0  0  0  0  0  0  0  0  0  0  0
    6.9864    4.0525    5.2769 H   0  0  0  0  0  0  0  0  0  0  0  0
    5.9908    4.2124    7.7470 H   0  0  0  0  0  0  0  0  0  0  0  0
   -0.4500   -1.1137    3.5950 H   0  0  0  0  0  0  0  0  0  0  0  0
    1.5634   -1.4220   -2.5033 H   0  0  0  0  0  0  0  0  0  0  0  0
    2.4205   -2.9872   -2.0273 H   0  0  0  0  0  0  0  0  0  0  0  0
    3.2780   -1.7003   -2.8707 H   0  0  0  0  0  0  0  0  0  0  0  0
    4.6731   -1.4734    0.5648 H   0  0  0  0  0  0  0  0  0  0  0  0
    4.0486   -3.0084   -0.1283 H   0  0  0  0  0  0  0  0  0  0  0  0
    4.9799   -1.8520   -1.1467 H   0  0  0  0  0  0  0  0  0  0  0  0
    3.9160    0.3559   -1.8885 H   0  0  0  0  0  0  0  0  0  0  0  0
    2.2327    0.7533   -1.3891 H   0  0  0  0  0  0  0  0  0  0  0  0
    3.5809    0.8057   -0.2056 H   0  0  0  0  0  0  0  0  0  0  0  0
  1 33  1  0  0  0  0
  1 34  1  0  0  0  0
  1 35  1  0  0  0  0
  2  1  1  0  0  0  0
  3  2  2  0  0  0  0
  4  2  1  0  0  0  0
  5  4  2  0  0  0  0
  6  5  1  0  0  0  0
  6 36  1  0  0  0  0
  6 37  1  0  0  0  0
  6 38  1  0  0  0  0
  7  5  1  0  0  0  0
  8  7  2  0  0  0  0
  9  8  1  0  0  0  0
  9 39  1  0  0  0  0
 10  9  1  0  0  0  0
 11 10  2  0  0  0  0
 11 40  1  0  0  0  0
 12 11  1  0  0  0  0
 13 12  2  0  0  0  0
 14 13  1  0  0  0  0
 14 41  1  0  0  0  0
 15 13  1  0  0  0  0
 16 15  2  0  0  0  0
 16 42  1  0  0  0  0
 17 16  1  0  0  0  0
 18 17  1  0  0  0  0
 18 43  1  0  0  0  0
 19 18  2  0  0  0  0
 19 44  1  0  0  0  0
 20 19  1  0  0  0  0
 21 20  2  0  0  0  0
 22 20  1  0  0  0  0
 23 22  2  0  0  0  0
 23 45  1  0  0  0  0
 24 23  1  0  0  0  0
 24 46  1  0  0  0  0
 25 24  2  0  0  0  0
 25 47  1  0  0  0  0
 26 25  1  0  0  0  0
 26 22  1  0  0  0  0
 27 17  2  0  0  0  0
 27 12  1  0  0  0  0
 27 48  1  0  0  0  0
 28 15  1  0  0  0  0
 29 28  1  0  0  0  0
 29 49  1  0  0  0  0
 29 50  1  0  0  0  0
 29 51  1  0  0  0  0
 30 28  1  0  0  0  0
 30 52  1  0  0  0  0
 30 53  1  0  0  0  0
 30 54  1  0  0  0  0
 31 28  1  0  0  0  0
 31 55  1  0  0  0  0
 31 56  1  0  0  0  0
 31 57  1  0  0  0  0
 32  8  1  0  0  0  0
 32  4  1  0  0  0  0
M  END
>  <MOL Chiral Flag>
0

>  <energy>
132.94334166683706

$$$$
