>279.sdf
 OpenBabel10062212103D

 70 75  0  0  0  0  0  0  0  0999 V2000
    8.9432    2.1860    3.8546 O   0  0  0  0  0  0  0  0  0  0  0  0
    7.6707    2.4160    3.4664 C   0  0  0  0  0  0  0  0  0  0  0  0
    6.8038    3.1098    4.3163 C   0  0  0  0  0  0  0  0  0  0  0  0
    5.4870    3.3773    3.9189 C   0  0  0  0  0  0  0  0  0  0  0  0
    5.0201    2.9471    2.6622 C   0  0  0  0  0  0  0  0  0  0  0  0
    3.6270    3.3251    2.1851 C   0  0  0  0  0  0  0  0  0  0  0  0
    2.6978    2.2370    1.8562 N   0  0  0  0  0  0  0  0  0  0  0  0
    2.7859    0.9162    2.1601 C   0  0  0  0  0  0  0  0  0  0  0  0
    3.7313    0.4227    2.7529 O   0  0  0  0  0  0  0  0  0  0  0  0
    1.6342    0.1679    1.5605 C   0  0  0  0  0  0  0  0  0  0  0  0
    1.3945   -1.1885    1.5858 C   0  0  0  0  0  0  0  0  0  0  0  0
    2.0864   -2.0970    2.5683 C   0  0  0  0  0  0  0  0  0  0  0  0
    2.3212   -1.6755    3.8939 C   0  0  0  0  0  0  0  0  0  0  0  0
    2.8686   -2.5517    4.8344 C   0  0  0  0  0  0  0  0  0  0  0  0
    3.1887   -3.8656    4.4714 C   0  0  0  0  0  0  0  0  0  0  0  0
    3.6984   -4.7247    5.3774 O   0  0  0  0  0  0  0  0  0  0  0  0
    2.9626   -4.2959    3.1620 C   0  0  0  0  0  0  0  0  0  0  0  0
    2.4100   -3.4249    2.2186 C   0  0  0  0  0  0  0  0  0  0  0  0
    0.4407   -1.8370    0.6171 C   0  0  0  0  0  0  0  0  0  0  0  0
   -0.3623   -2.9280    1.0087 C   0  0  0  0  0  0  0  0  0  0  0  0
   -1.1848   -3.5754    0.0807 C   0  0  0  0  0  0  0  0  0  0  0  0
   -1.2095   -3.1542   -1.2556 C   0  0  0  0  0  0  0  0  0  0  0  0
   -1.9875   -3.7811   -2.1617 O   0  0  0  0  0  0  0  0  0  0  0  0
   -0.4102   -2.0822   -1.6576 C   0  0  0  0  0  0  0  0  0  0  0  0
    0.4125   -1.4315   -0.7344 C   0  0  0  0  0  0  0  0  0  0  0  0
    0.8207    1.2491    0.9309 C   0  0  0  0  0  0  0  0  0  0  0  0
    1.4911    2.4406    1.1438 C   0  0  0  0  0  0  0  0  0  0  0  0
    0.9622    3.6612    0.7256 C   0  0  0  0  0  0  0  0  0  0  0  0
   -0.3002    3.6763    0.1194 C   0  0  0  0  0  0  0  0  0  0  0  0
   -1.0378    2.4823   -0.0629 C   0  0  0  0  0  0  0  0  0  0  0  0
   -2.4252    2.6029   -0.6133 C   0  0  0  0  0  0  0  0  0  0  0  0
   -3.2499    1.5676   -0.8987 C   0  0  0  0  0  0  0  0  0  0  0  0
   -4.6650    1.7413   -1.3707 C   0  0  0  0  0  0  0  0  0  0  0  0
   -5.3810    0.6067   -1.7979 C   0  0  0  0  0  0  0  0  0  0  0  0
   -6.7133    0.7131   -2.2251 C   0  0  0  0  0  0  0  0  0  0  0  0
   -7.3652   -0.3964   -2.6350 O   0  0  0  0  0  0  0  0  0  0  0  0
   -7.3532    1.9649   -2.2180 C   0  0  0  0  0  0  0  0  0  0  0  0
   -8.6392    2.0727   -2.6156 O   0  0  0  0  0  0  0  0  0  0  0  0
   -6.6515    3.0975   -1.7908 C   0  0  0  0  0  0  0  0  0  0  0  0
   -5.3224    2.9932   -1.3743 C   0  0  0  0  0  0  0  0  0  0  0  0
   -0.4639    1.2508    0.3469 C   0  0  0  0  0  0  0  0  0  0  0  0
    5.8953    2.2425    1.8148 C   0  0  0  0  0  0  0  0  0  0  0  0
    7.2118    1.9781    2.2155 C   0  0  0  0  0  0  0  0  0  0  0  0
    9.5780    1.7276    3.2849 H   0  0  0  0  0  0  0  0  0  0  0  0
    7.1577    3.4568    5.2799 H   0  0  0  0  0  0  0  0  0  0  0  0
    4.8410    3.9378    4.5823 H   0  0  0  0  0  0  0  0  0  0  0  0
    3.1254    3.9972    2.9148 H   0  0  0  0  0  0  0  0  0  0  0  0
    3.8011    3.9194    1.2625 H   0  0  0  0  0  0  0  0  0  0  0  0
    2.0418   -0.6812    4.2161 H   0  0  0  0  0  0  0  0  0  0  0  0
    3.0254   -2.2136    5.8511 H   0  0  0  0  0  0  0  0  0  0  0  0
    3.8430   -4.4657    6.2988 H   0  0  0  0  0  0  0  0  0  0  0  0
    3.2010   -5.3131    2.8778 H   0  0  0  0  0  0  0  0  0  0  0  0
    2.2303   -3.7901    1.2157 H   0  0  0  0  0  0  0  0  0  0  0  0
   -0.3523   -3.2785    2.0328 H   0  0  0  0  0  0  0  0  0  0  0  0
   -1.7953   -4.4113    0.3987 H   0  0  0  0  0  0  0  0  0  0  0  0
   -2.5415   -4.5376   -1.9216 H   0  0  0  0  0  0  0  0  0  0  0  0
   -0.4147   -1.7611   -2.6918 H   0  0  0  0  0  0  0  0  0  0  0  0
    1.0460   -0.6246   -1.0798 H   0  0  0  0  0  0  0  0  0  0  0  0
    1.4919    4.5891    0.8932 H   0  0  0  0  0  0  0  0  0  0  0  0
   -0.7247    4.6275   -0.1782 H   0  0  0  0  0  0  0  0  0  0  0  0
   -2.7774    3.6117   -0.7689 H   0  0  0  0  0  0  0  0  0  0  0  0
   -2.8952    0.5515   -0.7795 H   0  0  0  0  0  0  0  0  0  0  0  0
   -4.9034   -0.3658   -1.8028 H   0  0  0  0  0  0  0  0  0  0  0  0
   -8.2828   -0.3731   -2.9425 H   0  0  0  0  0  0  0  0  0  0  0  0
   -9.1064    2.9210   -2.6096 H   0  0  0  0  0  0  0  0  0  0  0  0
   -7.1397    4.0644   -1.7756 H   0  0  0  0  0  0  0  0  0  0  0  0
   -4.8354    3.8947   -1.0418 H   0  0  0  0  0  0  0  0  0  0  0  0
   -1.0266    0.3407    0.2700 H   0  0  0  0  0  0  0  0  0  0  0  0
    5.5636    1.9198    0.8364 H   0  0  0  0  0  0  0  0  0  0  0  0
    7.8798    1.4470    1.5484 H   0  0  0  0  0  0  0  0  0  0  0  0
  1 44  1  0  0  0  0
  2  1  1  0  0  0  0
  3  2  2  0  0  0  0
  3 45  1  0  0  0  0
  4  3  1  0  0  0  0
  4 46  1  0  0  0  0
  5  4  2  0  0  0  0
  6  5  1  0  0  0  0
  6 47  1  0  0  0  0
  6 48  1  0  0  0  0
  7  6  1  0  0  0  0
  8  7  1  0  0  0  0
  9  8  2  0  0  0  0
 10  8  1  0  0  0  0
 11 10  2  0  0  0  0
 12 11  1  0  0  0  0
 13 12  2  0  0  0  0
 13 49  1  0  0  0  0
 14 13  1  0  0  0  0
 14 50  1  0  0  0  0
 15 14  2  0  0  0  0
 16 15  1  0  0  0  0
 16 51  1  0  0  0  0
 17 15  1  0  0  0  0
 17 52  1  0  0  0  0
 18 17  2  0  0  0  0
 18 12  1  0  0  0  0
 18 53  1  0  0  0  0
 19 11  1  0  0  0  0
 20 19  2  0  0  0  0
 20 54  1  0  0  0  0
 21 20  1  0  0  0  0
 21 55  1  0  0  0  0
 22 21  2  0  0  0  0
 23 22  1  0  0  0  0
 23 56  1  0  0  0  0
 24 22  1  0  0  0  0
 24 57  1  0  0  0  0
 25 24  2  0  0  0  0
 25 19  1  0  0  0  0
 25 58  1  0  0  0  0
 26 10  1  0  0  0  0
 27 26  2  0  0  0  0
 27  7  1  0  0  0  0
 28 27  1  0  0  0  0
 28 59  1  0  0  0  0
 29 28  2  0  0  0  0
 29 60  1  0  0  0  0
 30 29  1  0  0  0  0
 31 30  1  0  0  0  0
 31 61  1  0  0  0  0
 32 31  2  0  0  0  0
 32 62  1  0  0  0  0
 33 32  1  0  0  0  0
 34 33  2  0  0  0  0
 34 63  1  0  0  0  0
 35 34  1  0  0  0  0
 36 35  1  0  0  0  0
 36 64  1  0  0  0  0
 37 35  2  0  0  0  0
 38 37  1  0  0  0  0
 38 65  1  0  0  0  0
 39 37  1  0  0  0  0
 39 66  1  0  0  0  0
 40 39  2  0  0  0  0
 40 33  1  0  0  0  0
 40 67  1  0  0  0  0
 41 30  2  0  0  0  0
 41 26  1  0  0  0  0
 41 68  1  0  0  0  0
 42  5  1  0  0  0  0
 42 69  1  0  0  0  0
 43 42  2  0  0  0  0
 43  2  1  0  0  0  0
 43 70  1  0  0  0  0
M  END
>  <MOL Chiral Flag>
0

>  <energy>
139.52572990010992

$$$$
