>28.sdf
 OpenBabel10052218013D

 18 19  0  0  0  0  0  0  0  0999 V2000
    0.8934    0.0534   -0.0914 O   0  0  0  0  0  0  0  0  0  0  0  0
    2.2427    0.0212   -0.0858 C   0  0  0  0  0  0  0  0  0  0  0  0
    2.9243   -1.2067   -0.0762 C   0  0  0  0  0  0  0  0  0  0  0  0
    4.3223   -1.2379   -0.0704 C   0  0  0  0  0  0  0  0  0  0  0  0
    5.0538   -0.0470   -0.0749 C   0  0  0  0  0  0  0  0  0  0  0  0
    4.3854    1.1855   -0.0904 C   0  0  0  0  0  0  0  0  0  0  0  0
    2.9722    1.2199   -0.0947 C   0  0  0  0  0  0  0  0  0  0  0  0
    2.3244    2.4184   -0.1146 N   0  0  0  0  0  0  0  0  0  0  0  0
    3.0044    3.5964   -0.1354 C   0  0  0  0  0  0  0  0  0  0  0  0
    4.4016    3.6027   -0.1334 C   0  0  0  0  0  0  0  0  0  0  0  0
    5.0958    2.3920   -0.1077 C   0  0  0  0  0  0  0  0  0  0  0  0
    0.3645   -0.7572   -0.0896 H   0  0  0  0  0  0  0  0  0  0  0  0
    2.3701   -2.1369   -0.0750 H   0  0  0  0  0  0  0  0  0  0  0  0
    4.8402   -2.1883   -0.0646 H   0  0  0  0  0  0  0  0  0  0  0  0
    6.1366   -0.0864   -0.0713 H   0  0  0  0  0  0  0  0  0  0  0  0
    2.4598    4.5310   -0.1565 H   0  0  0  0  0  0  0  0  0  0  0  0
    4.9422    4.5400   -0.1533 H   0  0  0  0  0  0  0  0  0  0  0  0
    6.1793    2.3962   -0.1067 H   0  0  0  0  0  0  0  0  0  0  0  0
  1 12  1  0  0  0  0
  2  1  1  0  0  0  0
  3  2  2  0  0  0  0
  3 13  1  0  0  0  0
  4  3  1  0  0  0  0
  4 14  1  0  0  0  0
  5  4  2  0  0  0  0
  5 15  1  0  0  0  0
  6  5  1  0  0  0  0
  7  6  2  0  0  0  0
  7  2  1  0  0  0  0
  8  7  1  0  0  0  0
  9  8  2  0  0  0  0
  9 16  1  0  0  0  0
 10  9  1  0  0  0  0
 10 17  1  0  0  0  0
 11 10  2  0  0  0  0
 11  6  1  0  0  0  0
 11 18  1  0  0  0  0
M  END
>  <MOL Chiral Flag>
0

>  <energy>
42.033867392539079

$$$$
