>280.sdf
 OpenBabel10062212113D

 66 67  0  0  0  0  0  0  0  0999 V2000
    8.4148    3.0917   -0.4634 O   0  0  0  0  0  0  0  0  0  0  0  0
    8.0785    3.4358   -1.7789 C   0  0  0  0  0  0  0  0  0  0  0  0
    6.7617    2.7680   -2.1782 C   0  0  0  0  0  0  0  0  0  0  0  0
    5.5901    3.2393   -1.3050 C   0  0  0  0  0  0  0  0  0  0  0  0
    4.2802    2.5817   -1.7531 C   0  0  0  0  0  0  0  0  0  0  0  0
    3.0928    3.0682   -0.9116 C   0  0  0  0  0  0  0  0  0  0  0  0
    1.7912    2.4023   -1.3926 C   0  0  0  0  0  0  0  0  0  0  0  0
    0.4974    2.8351   -0.6556 C   0  0  0  0  0  0  0  0  0  0  0  0
    0.1821    4.3402   -0.8393 C   0  0  0  0  0  0  0  0  0  0  0  0
   -1.2095    4.5823   -0.7750 O   0  0  0  0  0  0  0  0  0  0  0  0
   -1.5558    4.8675    0.4731 O   0  0  0  0  0  0  0  0  0  0  0  0
   -2.3797    3.8049    0.9512 C   0  0  0  0  0  0  0  0  0  0  0  0
   -3.6196    3.6237    0.0178 C   0  0  0  0  0  0  0  0  0  0  0  0
   -4.4569    2.3427    0.2788 C   0  0  0  0  0  0  0  0  0  0  0  0
   -5.7619    2.3292   -0.5569 C   0  0  0  0  0  0  0  0  0  0  0  0
   -6.8161    3.3632   -0.0918 C   0  0  0  0  0  0  0  0  0  0  0  0
   -7.5165    2.9575    1.2320 C   0  0  0  0  0  0  0  0  0  0  0  0
   -8.3566    4.1073    1.8346 C   0  0  0  0  0  0  0  0  0  0  0  0
   -7.7318    4.9082    3.0192 C   0  0  0  0  0  0  0  0  0  0  0  0
   -6.3884    5.6640    2.8482 C   0  0  0  0  0  0  0  0  0  0  0  0
   -5.2169    4.6905    2.7276 C   0  0  0  0  0  0  0  0  0  0  0  0
   -3.8021    5.2842    2.6855 C   0  0  0  0  0  0  0  0  0  0  0  0
   -2.7601    4.1537    2.4414 C   0  0  0  0  0  0  0  0  0  0  0  0
   -1.6454    2.5957    0.9381 O   0  0  0  0  0  0  0  0  0  0  0  0
   -0.5381    2.8219    1.6198 O   0  0  0  0  0  0  0  0  0  0  0  0
    0.5497    2.4064    0.8368 C   0  0  0  0  0  0  0  0  0  0  0  0
    9.2909    3.5215   -0.2832 H   0  0  0  0  0  0  0  0  0  0  0  0
    7.9743    4.5403   -1.8702 H   0  0  0  0  0  0  0  0  0  0  0  0
    8.8733    3.0792   -2.4716 H   0  0  0  0  0  0  0  0  0  0  0  0
    6.8732    1.6641   -2.0980 H   0  0  0  0  0  0  0  0  0  0  0  0
    6.5491    3.0239   -3.2394 H   0  0  0  0  0  0  0  0  0  0  0  0
    5.7865    2.9799   -0.2414 H   0  0  0  0  0  0  0  0  0  0  0  0
    5.4919    4.3436   -1.3925 H   0  0  0  0  0  0  0  0  0  0  0  0
    4.3737    1.4768   -1.6564 H   0  0  0  0  0  0  0  0  0  0  0  0
    4.0944    2.8316   -2.8209 H   0  0  0  0  0  0  0  0  0  0  0  0
    3.0044    4.1712   -1.0100 H   0  0  0  0  0  0  0  0  0  0  0  0
    3.2915    2.8135    0.1494 H   0  0  0  0  0  0  0  0  0  0  0  0
    1.8977    1.2985   -1.2985 H   0  0  0  0  0  0  0  0  0  0  0  0
    1.6599    2.6299   -2.4738 H   0  0  0  0  0  0  0  0  0  0  0  0
   -0.3160    2.2737   -1.1688 H   0  0  0  0  0  0  0  0  0  0  0  0
    0.4634    4.6282   -1.8747 H   0  0  0  0  0  0  0  0  0  0  0  0
    0.7831    4.9982   -0.1717 H   0  0  0  0  0  0  0  0  0  0  0  0
   -3.3008    3.5403   -1.0434 H   0  0  0  0  0  0  0  0  0  0  0  0
   -4.2058    4.5590    0.0626 H   0  0  0  0  0  0  0  0  0  0  0  0
   -4.6903    2.1896    1.3490 H   0  0  0  0  0  0  0  0  0  0  0  0
   -3.8301    1.4761   -0.0238 H   0  0  0  0  0  0  0  0  0  0  0  0
   -5.4891    2.5340   -1.6154 H   0  0  0  0  0  0  0  0  0  0  0  0
   -6.2234    1.3188   -0.5222 H   0  0  0  0  0  0  0  0  0  0  0  0
   -7.6148    3.4384   -0.8622 H   0  0  0  0  0  0  0  0  0  0  0  0
   -6.3697    4.3734   -0.0486 H   0  0  0  0  0  0  0  0  0  0  0  0
   -6.8547    2.5434    2.0193 H   0  0  0  0  0  0  0  0  0  0  0  0
   -8.1894    2.1183    0.9473 H   0  0  0  0  0  0  0  0  0  0  0  0
   -9.2549    3.6338    2.2898 H   0  0  0  0  0  0  0  0  0  0  0  0
   -8.7330    4.7738    1.0291 H   0  0  0  0  0  0  0  0  0  0  0  0
   -8.4963    5.6594    3.3141 H   0  0  0  0  0  0  0  0  0  0  0  0
   -7.6177    4.2161    3.8838 H   0  0  0  0  0  0  0  0  0  0  0  0
   -6.4344    6.3591    1.9830 H   0  0  0  0  0  0  0  0  0  0  0  0
   -6.2243    6.2607    3.7721 H   0  0  0  0  0  0  0  0  0  0  0  0
   -5.2576    3.9643    3.5700 H   0  0  0  0  0  0  0  0  0  0  0  0
   -5.3702    4.1632    1.8215 H   0  0  0  0  0  0  0  0  0  0  0  0
   -3.6362    5.7182    3.6959 H   0  0  0  0  0  0  0  0  0  0  0  0
   -3.6788    6.0973    1.9380 H   0  0  0  0  0  0  0  0  0  0  0  0
   -3.0841    3.2441    2.9924 H   0  0  0  0  0  0  0  0  0  0  0  0
   -1.8136    4.4794    2.9265 H   0  0  0  0  0  0  0  0  0  0  0  0
    0.6643    1.3035    0.9178 H   0  0  0  0  0  0  0  0  0  0  0  0
    1.4369    2.8685    1.3100 H   0  0  0  0  0  0  0  0  0  0  0  0
  1 27  1  0  0  0  0
  2  1  1  0  0  0  0
  2 28  1  0  0  0  0
  2 29  1  0  0  0  0
  3  2  1  0  0  0  0
  3 30  1  0  0  0  0
  3 31  1  0  0  0  0
  4  3  1  0  0  0  0
  4 32  1  0  0  0  0
  4 33  1  0  0  0  0
  5  4  1  0  0  0  0
  5 34  1  0  0  0  0
  5 35  1  0  0  0  0
  6  5  1  0  0  0  0
  6 36  1  0  0  0  0
  6 37  1  0  0  0  0
  7  6  1  0  0  0  0
  7 38  1  0  0  0  0
  7 39  1  0  0  0  0
  8  7  1  0  0  0  0
  8 40  1  0  0  0  0
  9  8  1  0  0  0  0
  9 41  1  0  0  0  0
  9 42  1  0  0  0  0
 10  9  1  0  0  0  0
 11 10  1  0  0  0  0
 12 11  1  0  0  0  0
 13 12  1  0  0  0  0
 13 43  1  0  0  0  0
 13 44  1  0  0  0  0
 14 13  1  0  0  0  0
 14 45  1  0  0  0  0
 14 46  1  0  0  0  0
 15 14  1  0  0  0  0
 15 47  1  0  0  0  0
 15 48  1  0  0  0  0
 16 15  1  0  0  0  0
 16 49  1  0  0  0  0
 16 50  1  0  0  0  0
 17 16  1  0  0  0  0
 17 51  1  0  0  0  0
 17 52  1  0  0  0  0
 18 17  1  0  0  0  0
 18 53  1  0  0  0  0
 18 54  1  0  0  0  0
 19 18  1  0  0  0  0
 19 55  1  0  0  0  0
 19 56  1  0  0  0  0
 20 19  1  0  0  0  0
 20 57  1  0  0  0  0
 20 58  1  0  0  0  0
 21 20  1  0  0  0  0
 21 59  1  0  0  0  0
 21 60  1  0  0  0  0
 22 21  1  0  0  0  0
 22 61  1  0  0  0  0
 22 62  1  0  0  0  0
 23 22  1  0  0  0  0
 23 12  1  0  0  0  0
 23 63  1  0  0  0  0
 23 64  1  0  0  0  0
 24 12  1  0  0  0  0
 25 24  1  0  0  0  0
 26 25  1  0  0  0  0
 26  8  1  0  0  0  0
 26 65  1  0  0  0  0
 26 66  1  0  0  0  0
M  END
>  <MOL Chiral Flag>
0

>  <energy>
67.33812187557244

$$$$
