>284.sdf
 OpenBabel10062212123D

 43 45  0  0  0  0  0  0  0  0999 V2000
   -0.1666    2.9896   -0.3941 C   0  0  0  0  0  0  0  0  0  0  0  0
   -0.5115    1.5019   -0.5548 C   0  0  2  0  0  0  0  0  0  0  0  0
   -1.8946    1.3331   -1.2385 C   0  0  1  0  0  0  0  0  0  0  0  0
   -1.8677    1.8250   -2.5557 O   0  0  0  0  0  0  0  0  0  0  0  0
   -2.2656   -0.1575   -1.2611 C   0  0  0  0  0  0  0  0  0  0  0  0
   -2.1856   -0.8551    0.1502 C   0  0  2  0  0  0  0  0  0  0  0  0
   -1.8098    0.1828    1.2328 C   0  0  0  0  0  0  0  0  0  0  0  0
   -0.4380    0.7544    0.8354 C   0  0  1  0  0  0  0  0  0  0  0  0
    0.5793   -0.4353    0.8176 C   0  0  1  0  0  0  0  0  0  0  0  0
    0.1815   -1.4637   -0.0941 O   0  0  0  0  0  0  0  0  0  0  0  0
   -1.1121   -2.0063    0.1805 C   0  0  0  0  0  0  0  0  0  0  0  0
   -1.1295   -2.8016    1.5222 C   0  0  0  0  0  0  0  0  0  0  0  0
   -1.4177   -3.0755   -0.9008 C   0  0  0  0  0  0  0  0  0  0  0  0
    1.9855    0.0506    0.4956 C   0  0  0  0  0  0  0  0  0  0  0  0
    2.6681   -0.3779   -0.6620 C   0  0  0  0  0  0  0  0  0  0  0  0
    3.9593    0.0852   -0.9325 C   0  0  0  0  0  0  0  0  0  0  0  0
    4.5859    0.9712   -0.0537 C   0  0  0  0  0  0  0  0  0  0  0  0
    3.9229    1.3984    1.0978 C   0  0  0  0  0  0  0  0  0  0  0  0
    2.6301    0.9440    1.3730 C   0  0  0  0  0  0  0  0  0  0  0  0
    0.8454    3.0996    0.0506 H   0  0  0  0  0  0  0  0  0  0  0  0
   -0.1600    3.5013   -1.3793 H   0  0  0  0  0  0  0  0  0  0  0  0
   -0.9060    3.4901    0.2671 H   0  0  0  0  0  0  0  0  0  0  0  0
    0.2498    1.0692   -1.2400 H   0  0  0  0  0  0  0  0  0  0  0  0
   -2.6830    1.8668   -0.6579 H   0  0  0  0  0  0  0  0  0  0  0  0
   -2.1671    2.7710   -2.5256 H   0  0  0  0  0  0  0  0  0  0  0  0
   -1.5517   -0.6122   -1.9722 H   0  0  0  0  0  0  0  0  0  0  0  0
   -3.2827   -0.2836   -1.6916 H   0  0  0  0  0  0  0  0  0  0  0  0
   -3.1846   -1.2807    0.3928 H   0  0  0  0  0  0  0  0  0  0  0  0
   -2.5725    0.9849    1.3143 H   0  0  0  0  0  0  0  0  0  0  0  0
   -1.7738   -0.2620    2.2453 H   0  0  0  0  0  0  0  0  0  0  0  0
   -0.1309    1.4686    1.6308 H   0  0  0  0  0  0  0  0  0  0  0  0
    0.6687   -0.8708    1.8337 H   0  0  0  0  0  0  0  0  0  0  0  0
   -0.3706   -3.6132    1.4971 H   0  0  0  0  0  0  0  0  0  0  0  0
   -2.1280   -3.2624    1.6829 H   0  0  0  0  0  0  0  0  0  0  0  0
   -0.9115   -2.2064    2.4254 H   0  0  0  0  0  0  0  0  0  0  0  0
   -0.6671   -3.8942   -0.8534 H   0  0  0  0  0  0  0  0  0  0  0  0
   -2.4255   -3.5170   -0.7421 H   0  0  0  0  0  0  0  0  0  0  0  0
   -1.3741   -2.6963   -1.9375 H   0  0  0  0  0  0  0  0  0  0  0  0
    2.2053   -1.0622   -1.3609 H   0  0  0  0  0  0  0  0  0  0  0  0
    4.4750   -0.2440   -1.8253 H   0  0  0  0  0  0  0  0  0  0  0  0
    5.5864    1.3257   -0.2651 H   0  0  0  0  0  0  0  0  0  0  0  0
    4.4113    2.0823    1.7800 H   0  0  0  0  0  0  0  0  0  0  0  0
    2.1332    1.2823    2.2730 H   0  0  0  0  0  0  0  0  0  0  0  0
  1 20  1  0  0  0  0
  1 21  1  0  0  0  0
  1 22  1  0  0  0  0
  2  1  1  0  0  0  0
  2 23  1  6  0  0  0
  3  2  1  0  0  0  0
  3 24  1  1  0  0  0
  4  3  1  0  0  0  0
  4 25  1  0  0  0  0
  5  3  1  0  0  0  0
  5 26  1  0  0  0  0
  5 27  1  0  0  0  0
  6  5  1  0  0  0  0
  6 28  1  1  0  0  0
  7  6  1  0  0  0  0
  7 29  1  0  0  0  0
  7 30  1  0  0  0  0
  8  7  1  0  0  0  0
  8  2  1  0  0  0  0
  8 31  1  1  0  0  0
  9  8  1  0  0  0  0
  9 32  1  1  0  0  0
 10  9  1  0  0  0  0
 11 10  1  0  0  0  0
 11  6  1  0  0  0  0
 12 11  1  0  0  0  0
 12 33  1  0  0  0  0
 12 34  1  0  0  0  0
 12 35  1  0  0  0  0
 13 11  1  0  0  0  0
 13 36  1  0  0  0  0
 13 37  1  0  0  0  0
 13 38  1  0  0  0  0
 14  9  1  0  0  0  0
 15 14  2  0  0  0  0
 15 39  1  0  0  0  0
 16 15  1  0  0  0  0
 16 40  1  0  0  0  0
 17 16  2  0  0  0  0
 17 41  1  0  0  0  0
 18 17  1  0  0  0  0
 18 42  1  0  0  0  0
 19 18  2  0  0  0  0
 19 14  1  0  0  0  0
 19 43  1  0  0  0  0
M  END
>  <MOL Chiral Flag>
0

>  <energy>
72.566061953491953

$$$$
