>286_2.sdf
 OpenBabel10102214103D

 56 60  0  0  0  0  0  0  0  0999 V2000
   -4.4616    4.5180    1.2123 O   0  0  0  0  0  0  0  0  0  0  0  0
   -3.1580    4.2626    1.0254 N   0  0  0  0  0  0  0  0  0  0  0  0
   -2.7557    3.3840    0.0710 C   0  0  0  0  0  0  0  0  0  0  0  0
   -3.5851    2.8347   -0.6409 O   0  0  0  0  0  0  0  0  0  0  0  0
   -1.2797    3.1267   -0.1549 C   0  0  0  0  0  0  0  0  0  0  0  0
   -0.7535    1.7496    0.0234 N   0  0  0  0  0  0  0  0  0  0  0  0
   -1.5275    0.6923    0.4292 C   0  0  0  0  0  0  0  0  0  0  0  0
   -2.6753    0.8582    0.8127 O   0  0  0  0  0  0  0  0  0  0  0  0
   -0.9721   -0.7093    0.3801 C   0  0  2  0  0  0  0  0  0  0  0  0
   -1.7559   -1.6745    1.3195 C   0  0  0  0  0  0  0  0  0  0  0  0
   -2.8979   -2.2673    0.5626 C   0  0  0  0  0  0  0  0  0  0  0  0
   -4.2304   -1.9613    0.8670 C   0  0  0  0  0  0  0  0  0  0  0  0
   -5.2579   -2.5060    0.0884 C   0  0  0  0  0  0  0  0  0  0  0  0
   -4.9545   -3.3641   -0.9769 C   0  0  0  0  0  0  0  0  0  0  0  0
   -3.6268   -3.6879   -1.2601 C   0  0  0  0  0  0  0  0  0  0  0  0
   -2.6044   -3.1424   -0.4947 C   0  0  0  0  0  0  0  0  0  0  0  0
    0.4140   -0.7054    0.7781 N   0  0  0  0  0  0  0  0  0  0  0  0
    1.3302    0.2130    0.0533 C   0  0  2  0  0  0  0  0  0  0  0  0
    1.9304   -0.3708   -1.3043 C   0  0  1  0  0  0  0  0  0  0  0  0
    3.0363    0.5776   -1.8845 C   0  0  0  0  0  0  0  0  0  0  0  0
    4.1854    0.7452   -0.8559 C   0  0  2  0  0  0  0  0  0  0  0  0
    4.8303   -0.6292   -0.5959 C   0  0  0  0  0  0  0  0  0  0  0  0
    3.7650   -1.5968   -0.0511 C   0  0  2  0  0  0  0  0  0  0  0  0
    2.6279   -1.7441   -1.0921 C   0  0  0  0  0  0  0  0  0  0  0  0
    3.2227   -1.0266    1.2817 C   0  0  0  0  0  0  0  0  0  0  0  0
    2.5515    0.3667    1.0310 C   0  0  1  0  0  0  0  0  0  0  0  0
    3.6461    1.3075    0.4771 C   0  0  0  0  0  0  0  0  0  0  0  0
    0.5909    1.5643   -0.2223 C   0  0  0  0  0  0  0  0  0  0  0  0
    1.2339    2.5087   -0.6509 O   0  0  0  0  0  0  0  0  0  0  0  0
   -4.6424    5.3312    0.6737 H   0  0  0  0  0  0  0  0  0  0  0  0
   -2.4627    4.7463    1.6137 H   0  0  0  0  0  0  0  0  0  0  0  0
   -0.7007    3.8004    0.5134 H   0  0  0  0  0  0  0  0  0  0  0  0
   -1.0814    3.4439   -1.2030 H   0  0  0  0  0  0  0  0  0  0  0  0
   -0.9804   -1.0568   -0.6771 H   0  0  0  0  0  0  0  0  0  0  0  0
   -2.0493   -1.1473    2.2574 H   0  0  0  0  0  0  0  0  0  0  0  0
   -1.1340   -2.5385    1.6445 H   0  0  0  0  0  0  0  0  0  0  0  0
   -4.4695   -1.2898    1.6831 H   0  0  0  0  0  0  0  0  0  0  0  0
   -6.2877   -2.2576    0.3037 H   0  0  0  0  0  0  0  0  0  0  0  0
   -5.7459   -3.7787   -1.5840 H   0  0  0  0  0  0  0  0  0  0  0  0
   -3.3838   -4.3543   -2.0767 H   0  0  0  0  0  0  0  0  0  0  0  0
   -1.5736   -3.3937   -0.7217 H   0  0  0  0  0  0  0  0  0  0  0  0
    0.7294   -1.6940    0.7146 H   0  0  0  0  0  0  0  0  0  0  0  0
    1.1232   -0.4949   -2.0596 H   0  0  0  0  0  0  0  0  0  0  0  0
    2.6394    1.5645   -2.1776 H   0  0  0  0  0  0  0  0  0  0  0  0
    3.4512    0.1534   -2.8261 H   0  0  0  0  0  0  0  0  0  0  0  0
    4.9614    1.4334   -1.2550 H   0  0  0  0  0  0  0  0  0  0  0  0
    5.2656   -1.0292   -1.5372 H   0  0  0  0  0  0  0  0  0  0  0  0
    5.6600   -0.5300    0.1396 H   0  0  0  0  0  0  0  0  0  0  0  0
    4.2366   -2.5885    0.1229 H   0  0  0  0  0  0  0  0  0  0  0  0
    3.0533   -2.1043   -2.0577 H   0  0  0  0  0  0  0  0  0  0  0  0
    1.9099   -2.5287   -0.7897 H   0  0  0  0  0  0  0  0  0  0  0  0
    4.0557   -0.9188    2.0075 H   0  0  0  0  0  0  0  0  0  0  0  0
    2.5333   -1.7547    1.7524 H   0  0  0  0  0  0  0  0  0  0  0  0
    2.1843    0.7677    2.0012 H   0  0  0  0  0  0  0  0  0  0  0  0
    4.4714    1.3834    1.2185 H   0  0  0  0  0  0  0  0  0  0  0  0
    3.2775    2.3396    0.3511 H   0  0  0  0  0  0  0  0  0  0  0  0
  1 30  1  0  0  0  0
  2  1  1  0  0  0  0
  2 31  1  0  0  0  0
  3  2  1  0  0  0  0
  4  3  2  0  0  0  0
  5  3  1  0  0  0  0
  5 32  1  0  0  0  0
  5 33  1  0  0  0  0
  6  5  1  0  0  0  0
  7  6  1  0  0  0  0
  8  7  2  0  0  0  0
  9  7  1  0  0  0  0
  9 34  1  6  0  0  0
 10  9  1  0  0  0  0
 10 35  1  0  0  0  0
 10 36  1  0  0  0  0
 11 10  1  0  0  0  0
 12 11  2  0  0  0  0
 12 37  1  0  0  0  0
 13 12  1  0  0  0  0
 13 38  1  0  0  0  0
 14 13  2  0  0  0  0
 14 39  1  0  0  0  0
 15 14  1  0  0  0  0
 15 40  1  0  0  0  0
 16 15  2  0  0  0  0
 16 11  1  0  0  0  0
 16 41  1  0  0  0  0
 17  9  1  0  0  0  0
 17 42  1  0  0  0  0
 18 17  1  1  0  0  0
 19 18  1  0  0  0  0
 19 43  1  6  0  0  0
 20 19  1  0  0  0  0
 20 44  1  0  0  0  0
 20 45  1  0  0  0  0
 21 20  1  0  0  0  0
 21 46  1  6  0  0  0
 22 21  1  0  0  0  0
 22 47  1  0  0  0  0
 22 48  1  0  0  0  0
 23 22  1  0  0  0  0
 23 49  1  1  0  0  0
 24 23  1  0  0  0  0
 24 19  1  0  0  0  0
 24 50  1  0  0  0  0
 24 51  1  0  0  0  0
 25 23  1  0  0  0  0
 25 52  1  0  0  0  0
 25 53  1  0  0  0  0
 26 25  1  0  0  0  0
 26 18  1  0  0  0  0
 26 54  1  1  0  0  0
 27 26  1  0  0  0  0
 27 21  1  0  0  0  0
 27 55  1  0  0  0  0
 27 56  1  0  0  0  0
 28 18  1  0  0  0  0
 28  6  1  0  0  0  0
 29 28  2  0  0  0  0
M  END
>  <MOL Chiral Flag>
0

>  <energy>
156.53445555202103

$$$$
