>288.sdf
 OpenBabel10062212163D

 73 75  0  0  0  0  0  0  0  0999 V2000
   -4.3601   -0.4886    6.5706 C   0  0  0  0  0  0  0  0  0  0  0  0
   -4.0817    0.4545    5.4003 C   0  0  0  0  0  0  0  0  0  0  0  0
   -2.8349    0.0249    4.6117 C   0  0  0  0  0  0  0  0  0  0  0  0
   -2.5032    1.0320    3.4921 C   0  0  0  0  0  0  0  0  0  0  0  0
   -1.1689    0.6930    2.7961 C   0  0  2  0  0  0  0  0  0  0  0  0
   -0.6622    1.8417    1.8854 C   0  0  0  0  0  0  0  0  0  0  0  0
   -1.5022    2.1881    0.6256 C   0  0  0  0  0  0  0  0  0  0  0  0
   -0.7678    3.3184   -0.1284 C   0  0  0  0  0  0  0  0  0  0  0  0
   -1.4670    3.9837   -1.3302 C   0  0  0  0  0  0  0  0  0  0  0  0
   -1.5809    3.1533   -2.6246 C   0  0  0  0  0  0  0  0  0  0  0  0
   -1.9922    4.0873   -3.7896 C   0  0  0  0  0  0  0  0  0  0  0  0
   -2.0841    3.3787   -5.1533 C   0  0  0  0  0  0  0  0  0  0  0  0
   -2.3699    4.3056   -6.2645 N   0  3  0  0  0  0  0  0  0  0  0  0
   -2.5113    3.9487   -7.5596 C   0  0  0  0  0  0  0  0  0  0  0  0
   -2.7570    5.0223   -8.3386 N   0  0  0  0  0  0  0  0  0  0  0  0
   -2.9668    5.0397   -9.7822 C   0  0  0  0  0  0  0  0  0  0  0  0
   -2.7708    6.0903   -7.5199 C   0  0  0  0  0  0  0  0  0  0  0  0
   -2.5326    5.6506   -6.2338 C   0  0  0  0  0  0  0  0  0  0  0  0
   -1.2729   -0.4797    2.0645 O   0  0  0  0  0  0  0  0  0  0  0  0
   -0.2217   -1.0808    1.4427 C   0  0  0  0  0  0  0  0  0  0  0  0
    1.0685   -1.1250    2.0120 C   0  0  0  0  0  0  0  0  0  0  0  0
    2.1319   -1.7165    1.3161 C   0  0  0  0  0  0  0  0  0  0  0  0
    1.9272   -2.2608    0.0313 C   0  0  0  0  0  0  0  0  0  0  0  0
    0.6297   -2.2153   -0.5184 C   0  0  0  0  0  0  0  0  0  0  0  0
   -0.4292   -1.6440    0.1858 C   0  0  0  0  0  0  0  0  0  0  0  0
    3.0281   -2.8845   -0.7715 C   0  0  0  0  0  0  0  0  0  0  0  0
    2.7790   -3.2406   -1.9158 O   0  0  0  0  0  0  0  0  0  0  0  0
    4.4023   -3.1298   -0.2364 C   0  0  0  0  0  0  0  0  0  0  0  0
    5.3256   -3.7511   -0.9954 C   0  0  0  0  0  0  0  0  0  0  0  0
    6.6755   -4.0744   -0.5043 C   0  0  0  0  0  0  0  0  0  0  0  0
    7.6282   -4.7633   -1.2247 C   0  0  0  0  0  0  0  0  0  0  0  0
    8.7206   -4.8750   -0.3967 C   0  0  0  0  0  0  0  0  0  0  0  0
    8.3749   -4.2453    0.7828 C   0  0  0  0  0  0  0  0  0  0  0  0
    7.1476   -3.7801    0.6864 O   0  0  0  0  0  0  0  0  0  0  0  0
   -3.4987   -0.4989    7.2732 H   0  0  0  0  0  0  0  0  0  0  0  0
   -4.5455   -1.5207    6.2065 H   0  0  0  0  0  0  0  0  0  0  0  0
   -5.2571   -0.1398    7.1259 H   0  0  0  0  0  0  0  0  0  0  0  0
   -4.9653    0.4742    4.7272 H   0  0  0  0  0  0  0  0  0  0  0  0
   -3.9252    1.4753    5.8135 H   0  0  0  0  0  0  0  0  0  0  0  0
   -2.9865   -0.9898    4.1835 H   0  0  0  0  0  0  0  0  0  0  0  0
   -1.9779   -0.0145    5.3209 H   0  0  0  0  0  0  0  0  0  0  0  0
   -3.3318    1.0836    2.7534 H   0  0  0  0  0  0  0  0  0  0  0  0
   -2.3945    2.0299    3.9715 H   0  0  0  0  0  0  0  0  0  0  0  0
   -0.4209    0.5779    3.6101 H   0  0  0  0  0  0  0  0  0  0  0  0
    0.3594    1.5680    1.5440 H   0  0  0  0  0  0  0  0  0  0  0  0
   -0.5603    2.7529    2.5146 H   0  0  0  0  0  0  0  0  0  0  0  0
   -2.5098    2.5357    0.9381 H   0  0  0  0  0  0  0  0  0  0  0  0
   -1.6139    1.3014   -0.0354 H   0  0  0  0  0  0  0  0  0  0  0  0
    0.2349    2.9598   -0.4506 H   0  0  0  0  0  0  0  0  0  0  0  0
   -0.6136    4.1387    0.6066 H   0  0  0  0  0  0  0  0  0  0  0  0
   -0.8227    4.8579   -1.5734 H   0  0  0  0  0  0  0  0  0  0  0  0
   -2.4643    4.3726   -1.0313 H   0  0  0  0  0  0  0  0  0  0  0  0
   -0.5872    2.7187   -2.8699 H   0  0  0  0  0  0  0  0  0  0  0  0
   -2.3119    2.3269   -2.4918 H   0  0  0  0  0  0  0  0  0  0  0  0
   -2.9720    4.5612   -3.5617 H   0  0  0  0  0  0  0  0  0  0  0  0
   -1.2192    4.8832   -3.8755 H   0  0  0  0  0  0  0  0  0  0  0  0
   -1.1171    2.8729   -5.3649 H   0  0  0  0  0  0  0  0  0  0  0  0
   -2.8840    2.6092   -5.1060 H   0  0  0  0  0  0  0  0  0  0  0  0
   -2.4359    2.9323   -7.9266 H   0  0  0  0  0  0  0  0  0  0  0  0
   -3.9705    5.4573  -10.0102 H   0  0  0  0  0  0  0  0  0  0  0  0
   -2.1934    5.6724  -10.2674 H   0  0  0  0  0  0  0  0  0  0  0  0
   -2.9033    4.0127  -10.2005 H   0  0  0  0  0  0  0  0  0  0  0  0
   -2.9401    7.1121   -7.8368 H   0  0  0  0  0  0  0  0  0  0  0  0
   -2.4797    6.2744   -5.3522 H   0  0  0  0  0  0  0  0  0  0  0  0
    1.2588   -0.7064    2.9903 H   0  0  0  0  0  0  0  0  0  0  0  0
    3.1041   -1.7262    1.7843 H   0  0  0  0  0  0  0  0  0  0  0  0
    0.4328   -2.6237   -1.5009 H   0  0  0  0  0  0  0  0  0  0  0  0
   -1.4141   -1.6129   -0.2621 H   0  0  0  0  0  0  0  0  0  0  0  0
    4.6617   -2.8414    0.7750 H   0  0  0  0  0  0  0  0  0  0  0  0
    5.0769   -4.0585   -2.0069 H   0  0  0  0  0  0  0  0  0  0  0  0
    7.5339   -5.1479   -2.2322 H   0  0  0  0  0  0  0  0  0  0  0  0
    9.6586   -5.3634   -0.6254 H   0  0  0  0  0  0  0  0  0  0  0  0
    9.0026   -4.1476    1.6582 H   0  0  0  0  0  0  0  0  0  0  0  0
  1 35  1  0  0  0  0
  1 36  1  0  0  0  0
  1 37  1  0  0  0  0
  2  1  1  0  0  0  0
  2 38  1  0  0  0  0
  2 39  1  0  0  0  0
  3  2  1  0  0  0  0
  3 40  1  0  0  0  0
  3 41  1  0  0  0  0
  4  3  1  0  0  0  0
  4 42  1  0  0  0  0
  4 43  1  0  0  0  0
  5  4  1  0  0  0  0
  5 44  1  1  0  0  0
  6  5  1  0  0  0  0
  6 45  1  0  0  0  0
  6 46  1  0  0  0  0
  7  6  1  0  0  0  0
  7 47  1  0  0  0  0
  7 48  1  0  0  0  0
  8  7  1  0  0  0  0
  8 49  1  0  0  0  0
  8 50  1  0  0  0  0
  9  8  1  0  0  0  0
  9 51  1  0  0  0  0
  9 52  1  0  0  0  0
 10  9  1  0  0  0  0
 10 53  1  0  0  0  0
 10 54  1  0  0  0  0
 11 10  1  0  0  0  0
 11 55  1  0  0  0  0
 11 56  1  0  0  0  0
 12 11  1  0  0  0  0
 12 57  1  0  0  0  0
 12 58  1  0  0  0  0
 13 12  1  0  0  0  0
 14 13  2  0  0  0  0
 14 59  1  0  0  0  0
 15 14  1  0  0  0  0
 16 15  1  0  0  0  0
 16 60  1  0  0  0  0
 16 61  1  0  0  0  0
 16 62  1  0  0  0  0
 17 15  1  0  0  0  0
 17 63  1  0  0  0  0
 18 17  2  0  0  0  0
 18 13  1  0  0  0  0
 18 64  1  0  0  0  0
 19  5  1  0  0  0  0
 20 19  1  0  0  0  0
 21 20  2  0  0  0  0
 21 65  1  0  0  0  0
 22 21  1  0  0  0  0
 22 66  1  0  0  0  0
 23 22  2  0  0  0  0
 24 23  1  0  0  0  0
 24 67  1  0  0  0  0
 25 24  2  0  0  0  0
 25 20  1  0  0  0  0
 25 68  1  0  0  0  0
 26 23  1  0  0  0  0
 27 26  2  0  0  0  0
 28 26  1  0  0  0  0
 28 69  1  0  0  0  0
 29 28  2  0  0  0  0
 29 70  1  0  0  0  0
 30 29  1  0  0  0  0
 31 30  2  0  0  0  0
 31 71  1  0  0  0  0
 32 31  1  0  0  0  0
 32 72  1  0  0  0  0
 33 32  2  0  0  0  0
 33 73  1  0  0  0  0
 34 33  1  0  0  0  0
 34 30  1  0  0  0  0
M  CHG  1  13   1
M  END
>  <MOL Chiral Flag>
0

>  <energy>
93.856596508335727

$$$$
