>29.sdf
 OpenBabel10052218013D

 38 40  0  0  0  0  0  0  0  0999 V2000
   -5.9112   -1.3022   -1.3908 O   0  0  0  0  0  0  0  0  0  0  0  0
   -5.4100   -0.7602   -0.1999 C   0  0  0  0  0  0  0  0  0  0  0  0
   -3.9577   -1.1191   -0.0468 C   0  0  0  0  0  0  0  0  0  0  0  0
   -3.0066   -0.1727    0.0185 C   0  0  0  0  0  0  0  0  0  0  0  0
   -1.5699   -0.5069    0.1417 C   0  0  0  0  0  0  0  0  0  0  0  0
   -1.1620   -1.8047    0.2100 N   0  0  0  0  0  0  0  0  0  0  0  0
    0.1519   -2.1438    0.2870 C   0  0  0  0  0  0  0  0  0  0  0  0
    1.1478   -1.1386    0.2765 C   0  0  0  0  0  0  0  0  0  0  0  0
    2.5025   -1.5126    0.3660 C   0  0  0  0  0  0  0  0  0  0  0  0
    2.8560   -2.8633    0.4648 C   0  0  0  0  0  0  0  0  0  0  0  0
    4.5488   -3.3121    0.5896 Cl  0  0  0  0  0  0  0  0  0  0  0  0
    1.8635   -3.8508    0.4737 C   0  0  0  0  0  0  0  0  0  0  0  0
    2.2034   -5.1602    0.5767 F   0  0  0  0  0  0  0  0  0  0  0  0
    0.5166   -3.4914    0.3828 C   0  0  0  0  0  0  0  0  0  0  0  0
    0.7448    0.2137    0.2111 C   0  0  0  0  0  0  0  0  0  0  0  0
   -0.6199    0.5200    0.1593 C   0  0  0  0  0  0  0  0  0  0  0  0
    1.6956    1.2738    0.1832 N   0  0  0  0  0  0  0  0  0  0  0  0
    1.7200    2.2883    1.2153 C   0  0  0  0  0  0  0  0  0  0  0  0
    1.4565    3.6456    0.5577 C   0  0  0  0  0  0  0  0  0  0  0  0
    2.3726    3.8705   -0.5048 O   0  0  0  0  0  0  0  0  0  0  0  0
    2.1889    2.8910   -1.5181 C   0  0  0  0  0  0  0  0  0  0  0  0
    2.5300    1.4926   -0.9801 C   0  0  0  0  0  0  0  0  0  0  0  0
   -6.0829   -2.2648   -1.2177 H   0  0  0  0  0  0  0  0  0  0  0  0
   -5.5582    0.3408   -0.2305 H   0  0  0  0  0  0  0  0  0  0  0  0
   -5.9880   -1.1380    0.6727 H   0  0  0  0  0  0  0  0  0  0  0  0
   -3.6909   -2.1708    0.0021 H   0  0  0  0  0  0  0  0  0  0  0  0
   -3.2923    0.8748   -0.0390 H   0  0  0  0  0  0  0  0  0  0  0  0
    3.2856   -0.7670    0.3745 H   0  0  0  0  0  0  0  0  0  0  0  0
   -0.2459   -4.2606    0.3946 H   0  0  0  0  0  0  0  0  0  0  0  0
   -0.9368    1.5541    0.0969 H   0  0  0  0  0  0  0  0  0  0  0  0
    2.7346    2.2989    1.6714 H   0  0  0  0  0  0  0  0  0  0  0  0
    0.9794    2.0829    2.0186 H   0  0  0  0  0  0  0  0  0  0  0  0
    1.5829    4.4413    1.3221 H   0  0  0  0  0  0  0  0  0  0  0  0
    0.4079    3.7110    0.1906 H   0  0  0  0  0  0  0  0  0  0  0  0
    2.8501    3.1290   -2.3769 H   0  0  0  0  0  0  0  0  0  0  0  0
    1.1422    2.9220   -1.9020 H   0  0  0  0  0  0  0  0  0  0  0  0
    3.6001    1.4631   -0.6840 H   0  0  0  0  0  0  0  0  0  0  0  0
    2.3502    0.7266   -1.7671 H   0  0  0  0  0  0  0  0  0  0  0  0
  1 23  1  0  0  0  0
  2  1  1  0  0  0  0
  2 24  1  0  0  0  0
  2 25  1  0  0  0  0
  3  2  1  0  0  0  0
  3 26  1  0  0  0  0
  4  3  2  0  0  0  0
  4 27  1  0  0  0  0
  5  4  1  0  0  0  0
  6  5  2  0  0  0  0
  7  6  1  0  0  0  0
  8  7  2  0  0  0  0
  9  8  1  0  0  0  0
  9 28  1  0  0  0  0
 10  9  2  0  0  0  0
 11 10  1  0  0  0  0
 12 10  1  0  0  0  0
 13 12  1  0  0  0  0
 14 12  2  0  0  0  0
 14  7  1  0  0  0  0
 14 29  1  0  0  0  0
 15  8  1  0  0  0  0
 16 15  2  0  0  0  0
 16  5  1  0  0  0  0
 16 30  1  0  0  0  0
 17 15  1  0  0  0  0
 18 17  1  0  0  0  0
 18 31  1  0  0  0  0
 18 32  1  0  0  0  0
 19 18  1  0  0  0  0
 19 33  1  0  0  0  0
 19 34  1  0  0  0  0
 20 19  1  0  0  0  0
 21 20  1  0  0  0  0
 21 35  1  0  0  0  0
 21 36  1  0  0  0  0
 22 21  1  0  0  0  0
 22 17  1  0  0  0  0
 22 37  1  0  0  0  0
 22 38  1  0  0  0  0
M  END
>  <MOL Chiral Flag>
0

>  <energy>
91.21972648756973

$$$$
