>290.sdf
 OpenBabel10062212173D

 60 64  0  0  0  0  0  0  0  0999 V2000
   -2.3219    4.7716   -3.0570 C   0  0  0  0  0  0  0  0  0  0  0  0
   -1.2876    3.9860   -3.8696 C   0  0  0  0  0  0  0  0  0  0  0  0
   -1.1985    2.5049   -3.4696 C   0  0  0  0  0  0  0  0  0  0  0  0
   -2.4758    1.7172   -3.8020 C   0  0  0  0  0  0  0  0  0  0  0  0
   -2.3691    0.2417   -3.3651 C   0  0  0  0  0  0  0  0  0  0  0  0
   -2.1123    0.1194   -1.9061 N   0  0  0  0  0  0  0  0  0  0  0  0
   -3.0588    0.6675   -1.0915 C   0  0  0  0  0  0  0  0  0  0  0  0
   -2.9557    0.6431    0.2906 C   0  0  0  0  0  0  0  0  0  0  0  0
   -4.0084    1.3541    1.0362 C   0  0  0  0  0  0  0  0  0  0  0  0
   -4.2057    2.5273    0.7594 O   0  0  0  0  0  0  0  0  0  0  0  0
   -4.9038    0.6576    1.7877 O   0  0  0  0  0  0  0  0  0  0  0  0
   -6.2646    0.9458    1.9502 C   0  0  0  0  0  0  0  0  0  0  0  0
   -6.8349    2.0998    1.0999 C   0  0  0  0  0  0  0  0  0  0  0  0
   -1.8592    0.0165    0.8913 C   0  0  0  0  0  0  0  0  0  0  0  0
   -1.7574   -0.0012    2.1081 O   0  0  0  0  0  0  0  0  0  0  0  0
   -0.8448   -0.5314    0.0722 C   0  0  0  0  0  0  0  0  0  0  0  0
   -0.9865   -0.4734   -1.3497 C   0  0  0  0  0  0  0  0  0  0  0  0
    0.0518   -1.0151   -2.1438 C   0  0  0  0  0  0  0  0  0  0  0  0
    1.2002   -1.5348   -1.5640 C   0  0  0  0  0  0  0  0  0  0  0  0
    1.3708   -1.5499   -0.1793 C   0  0  0  0  0  0  0  0  0  0  0  0
    0.3266   -1.0897    0.6405 C   0  0  0  0  0  0  0  0  0  0  0  0
    2.6029   -2.0303    0.4003 N   0  0  0  0  0  0  0  0  0  0  0  0
    2.6626   -2.6839    1.5565 N   0  0  0  0  0  0  0  0  0  0  0  0
    3.9198   -3.0158    1.8385 N   0  0  0  0  0  0  0  0  0  0  0  0
    4.6820   -2.5357    0.8381 C   0  0  0  0  0  0  0  0  0  0  0  0
    3.8748   -1.9084   -0.0567 C   0  0  0  0  0  0  0  0  0  0  0  0
    4.4469   -1.1843   -1.2212 C   0  0  0  0  0  0  0  0  0  0  0  0
    3.7518   -0.4999   -1.9532 O   0  0  0  0  0  0  0  0  0  0  0  0
    5.9282   -1.2202   -1.4150 C   0  0  0  0  0  0  0  0  0  0  0  0
    6.7567   -1.9115   -0.4857 C   0  0  0  0  0  0  0  0  0  0  0  0
    8.1496   -1.9222   -0.6800 C   0  0  0  0  0  0  0  0  0  0  0  0
    8.7148   -1.2590   -1.7736 C   0  0  0  0  0  0  0  0  0  0  0  0
    7.9019   -0.5794   -2.6822 C   0  0  0  0  0  0  0  0  0  0  0  0
    6.5173   -0.5576   -2.5068 C   0  0  0  0  0  0  0  0  0  0  0  0
    6.1417   -2.5976    0.6913 C   0  0  0  0  0  0  0  0  0  0  0  0
    6.8260   -3.1808    1.5184 O   0  0  0  0  0  0  0  0  0  0  0  0
   -2.0876    4.7096   -1.9725 H   0  0  0  0  0  0  0  0  0  0  0  0
   -2.2972    5.8386   -3.3622 H   0  0  0  0  0  0  0  0  0  0  0  0
   -3.3513    4.3984   -3.2288 H   0  0  0  0  0  0  0  0  0  0  0  0
   -0.2952    4.4506   -3.6851 H   0  0  0  0  0  0  0  0  0  0  0  0
   -1.5165    4.0715   -4.9535 H   0  0  0  0  0  0  0  0  0  0  0  0
   -0.3517    2.0392   -4.0183 H   0  0  0  0  0  0  0  0  0  0  0  0
   -0.9774    2.4477   -2.3810 H   0  0  0  0  0  0  0  0  0  0  0  0
   -3.3455    2.1857   -3.3072 H   0  0  0  0  0  0  0  0  0  0  0  0
   -2.6672    1.7562   -4.8957 H   0  0  0  0  0  0  0  0  0  0  0  0
   -1.6155   -0.2271   -4.0074 H   0  0  0  0  0  0  0  0  0  0  0  0
   -3.3250   -0.2734   -3.6067 H   0  0  0  0  0  0  0  0  0  0  0  0
   -3.9338    1.1412   -1.5198 H   0  0  0  0  0  0  0  0  0  0  0  0
   -6.4749    1.1458    3.0203 H   0  0  0  0  0  0  0  0  0  0  0  0
   -6.8296    0.0363    1.6539 H   0  0  0  0  0  0  0  0  0  0  0  0
   -6.6404    1.9228    0.0184 H   0  0  0  0  0  0  0  0  0  0  0  0
   -7.9328    2.1714    1.2419 H   0  0  0  0  0  0  0  0  0  0  0  0
   -6.4095    3.0785    1.4065 H   0  0  0  0  0  0  0  0  0  0  0  0
    0.0273   -1.0355   -3.2145 H   0  0  0  0  0  0  0  0  0  0  0  0
    1.9594   -1.9427   -2.2134 H   0  0  0  0  0  0  0  0  0  0  0  0
    0.4544   -1.1126    1.7164 H   0  0  0  0  0  0  0  0  0  0  0  0
    8.7986   -2.4383    0.0158 H   0  0  0  0  0  0  0  0  0  0  0  0
    9.7879   -1.2684   -1.9159 H   0  0  0  0  0  0  0  0  0  0  0  0
    8.3461   -0.0650   -3.5252 H   0  0  0  0  0  0  0  0  0  0  0  0
    5.9050   -0.0222   -3.2222 H   0  0  0  0  0  0  0  0  0  0  0  0
  1 37  1  0  0  0  0
  1 38  1  0  0  0  0
  1 39  1  0  0  0  0
  2  1  1  0  0  0  0
  2 40  1  0  0  0  0
  2 41  1  0  0  0  0
  3  2  1  0  0  0  0
  3 42  1  0  0  0  0
  3 43  1  0  0  0  0
  4  3  1  0  0  0  0
  4 44  1  0  0  0  0
  4 45  1  0  0  0  0
  5  4  1  0  0  0  0
  5 46  1  0  0  0  0
  5 47  1  0  0  0  0
  6  5  1  0  0  0  0
  7  6  1  0  0  0  0
  7 48  1  0  0  0  0
  8  7  2  0  0  0  0
  9  8  1  0  0  0  0
 10  9  2  0  0  0  0
 11  9  1  0  0  0  0
 12 11  1  0  0  0  0
 12 49  1  0  0  0  0
 12 50  1  0  0  0  0
 13 12  1  0  0  0  0
 13 51  1  0  0  0  0
 13 52  1  0  0  0  0
 13 53  1  0  0  0  0
 14  8  1  0  0  0  0
 15 14  2  0  0  0  0
 16 14  1  0  0  0  0
 17 16  2  0  0  0  0
 17  6  1  0  0  0  0
 18 17  1  0  0  0  0
 18 54  1  0  0  0  0
 19 18  2  0  0  0  0
 19 55  1  0  0  0  0
 20 19  1  0  0  0  0
 21 20  2  0  0  0  0
 21 16  1  0  0  0  0
 21 56  1  0  0  0  0
 22 20  1  0  0  0  0
 23 22  1  0  0  0  0
 24 23  2  0  0  0  0
 25 24  1  0  0  0  0
 26 25  2  0  0  0  0
 26 22  1  0  0  0  0
 27 26  1  0  0  0  0
 28 27  2  0  0  0  0
 29 27  1  0  0  0  0
 30 29  2  0  0  0  0
 31 30  1  0  0  0  0
 31 57  1  0  0  0  0
 32 31  2  0  0  0  0
 32 58  1  0  0  0  0
 33 32  1  0  0  0  0
 33 59  1  0  0  0  0
 34 33  2  0  0  0  0
 34 29  1  0  0  0  0
 34 60  1  0  0  0  0
 35 30  1  0  0  0  0
 35 25  1  0  0  0  0
 36 35  2  0  0  0  0
M  END
>  <MOL Chiral Flag>
0

>  <energy>
118.04041113172558

$$$$
