>297.sdf
 OpenBabel10062212213D

 46 48  0  0  0  0  0  0  0  0999 V2000
    9.2081   -0.2794    1.7483 O   0  0  0  0  0  0  0  0  0  0  0  0
    8.0445    0.3974    1.6539 C   0  0  0  0  0  0  0  0  0  0  0  0
    7.1445    0.0961    0.6217 C   0  0  0  0  0  0  0  0  0  0  0  0
    7.4514   -0.8685   -0.2708 O   0  0  0  0  0  0  0  0  0  0  0  0
    5.9339    0.8030    0.5189 C   0  0  0  0  0  0  0  0  0  0  0  0
    5.6235    1.8154    1.4457 C   0  0  0  0  0  0  0  0  0  0  0  0
    4.3729    2.6005    1.3492 C   0  0  0  0  0  0  0  0  0  0  0  0
    3.5012    2.3692    0.4291 N   0  0  0  0  0  0  0  0  0  0  0  0
    2.3843    3.1661    0.3008 N   0  0  0  0  0  0  0  0  0  0  0  0
    1.4555    2.9137   -0.6555 C   0  0  0  0  0  0  0  0  0  0  0  0
    1.5672    1.9356   -1.3811 O   0  0  0  0  0  0  0  0  0  0  0  0
    0.3121    3.8727   -0.8686 C   0  0  0  0  0  0  0  0  0  0  0  0
   -0.9246    3.2643   -0.7761 O   0  0  0  0  0  0  0  0  0  0  0  0
   -1.5367    2.7863    0.3417 C   0  0  0  0  0  0  0  0  0  0  0  0
   -0.9213    2.7997    1.6091 C   0  0  0  0  0  0  0  0  0  0  0  0
   -1.6028    2.3074    2.7261 C   0  0  0  0  0  0  0  0  0  0  0  0
   -0.8325    2.3318    4.3024 Cl  0  0  0  0  0  0  0  0  0  0  0  0
   -2.8949    1.7933    2.5877 C   0  0  0  0  0  0  0  0  0  0  0  0
   -3.5159    1.7811    1.3353 C   0  0  0  0  0  0  0  0  0  0  0  0
   -2.8440    2.2939    0.2085 C   0  0  0  0  0  0  0  0  0  0  0  0
   -3.4004    2.3230   -1.0318 O   0  0  0  0  0  0  0  0  0  0  0  0
   -4.6803    2.5732   -1.4241 C   0  0  0  0  0  0  0  0  0  0  0  0
   -4.9951    2.4080   -2.7843 C   0  0  0  0  0  0  0  0  0  0  0  0
   -3.7684    1.8577   -3.9175 Cl  0  0  0  0  0  0  0  0  0  0  0  0
   -6.2789    2.6979   -3.2562 C   0  0  0  0  0  0  0  0  0  0  0  0
   -7.2635    3.1532   -2.3774 C   0  0  0  0  0  0  0  0  0  0  0  0
   -8.8692    3.5255   -2.9775 Cl  0  0  0  0  0  0  0  0  0  0  0  0
   -6.9639    3.3256   -1.0238 C   0  0  0  0  0  0  0  0  0  0  0  0
   -5.6796    3.0462   -0.5448 C   0  0  0  0  0  0  0  0  0  0  0  0
    6.5316    2.1073    2.4743 C   0  0  0  0  0  0  0  0  0  0  0  0
    7.7323    1.4028    2.5793 C   0  0  0  0  0  0  0  0  0  0  0  0
    9.8521   -0.0898    2.4459 H   0  0  0  0  0  0  0  0  0  0  0  0
    6.8579   -1.0963   -1.0004 H   0  0  0  0  0  0  0  0  0  0  0  0
    5.2470    0.5686   -0.2851 H   0  0  0  0  0  0  0  0  0  0  0  0
    4.2108    3.4128    2.0541 H   0  0  0  0  0  0  0  0  0  0  0  0
    2.2772    3.9999    0.9003 H   0  0  0  0  0  0  0  0  0  0  0  0
    0.4132    4.2693   -1.9005 H   0  0  0  0  0  0  0  0  0  0  0  0
    0.3559    4.7406   -0.1763 H   0  0  0  0  0  0  0  0  0  0  0  0
    0.0758    3.1921    1.7373 H   0  0  0  0  0  0  0  0  0  0  0  0
   -3.4188    1.4042    3.4519 H   0  0  0  0  0  0  0  0  0  0  0  0
   -4.5105    1.3659    1.2494 H   0  0  0  0  0  0  0  0  0  0  0  0
   -6.5073    2.5765   -4.3077 H   0  0  0  0  0  0  0  0  0  0  0  0
   -7.7238    3.6887   -0.3435 H   0  0  0  0  0  0  0  0  0  0  0  0
   -5.4786    3.2218    0.4996 H   0  0  0  0  0  0  0  0  0  0  0  0
    6.3102    2.8857    3.1945 H   0  0  0  0  0  0  0  0  0  0  0  0
    8.4227    1.6424    3.3783 H   0  0  0  0  0  0  0  0  0  0  0  0
  1 32  1  0  0  0  0
  2  1  1  0  0  0  0
  3  2  2  0  0  0  0
  4  3  1  0  0  0  0
  4 33  1  0  0  0  0
  5  3  1  0  0  0  0
  5 34  1  0  0  0  0
  6  5  2  0  0  0  0
  7  6  1  0  0  0  0
  7 35  1  0  0  0  0
  8  7  2  0  0  0  0
  9  8  1  0  0  0  0
  9 36  1  0  0  0  0
 10  9  1  0  0  0  0
 11 10  2  0  0  0  0
 12 10  1  0  0  0  0
 12 37  1  0  0  0  0
 12 38  1  0  0  0  0
 13 12  1  0  0  0  0
 14 13  1  0  0  0  0
 15 14  2  0  0  0  0
 15 39  1  0  0  0  0
 16 15  1  0  0  0  0
 17 16  1  0  0  0  0
 18 16  2  0  0  0  0
 18 40  1  0  0  0  0
 19 18  1  0  0  0  0
 19 41  1  0  0  0  0
 20 19  2  0  0  0  0
 20 14  1  0  0  0  0
 21 20  1  0  0  0  0
 22 21  1  0  0  0  0
 23 22  2  0  0  0  0
 24 23  1  0  0  0  0
 25 23  1  0  0  0  0
 25 42  1  0  0  0  0
 26 25  2  0  0  0  0
 27 26  1  0  0  0  0
 28 26  1  0  0  0  0
 28 43  1  0  0  0  0
 29 28  2  0  0  0  0
 29 22  1  0  0  0  0
 29 44  1  0  0  0  0
 30  6  1  0  0  0  0
 30 45  1  0  0  0  0
 31 30  2  0  0  0  0
 31  2  1  0  0  0  0
 31 46  1  0  0  0  0
M  END
>  <MOL Chiral Flag>
0

>  <energy>
136.97746125196966

$$$$
