>3.sdf
 OpenBabel10042211353D

 44 48  0  0  0  0  0  0  0  0999 V2000
    0.9930    5.5602    0.6093 C   0  0  0  0  0  0  0  0  0  0  0  0
    0.5457    4.1568    0.3431 C   0  0  0  0  0  0  0  0  0  0  0  0
    1.4451    3.0925    0.4841 C   0  0  0  0  0  0  0  0  0  0  0  0
    1.0806    1.7761    0.2373 C   0  0  0  0  0  0  0  0  0  0  0  0
    2.0163    0.8301    0.4123 N   0  0  0  0  0  0  0  0  0  0  0  0
    1.7339   -0.4596    0.1196 C   0  0  0  0  0  0  0  0  0  0  0  0
    0.4864   -0.8426   -0.3590 C   0  0  0  0  0  0  0  0  0  0  0  0
    0.3371   -2.2280   -0.8566 C   0  0  0  0  0  0  0  0  0  0  0  0
   -0.6221   -2.5755   -1.5302 O   0  0  0  0  0  0  0  0  0  0  0  0
    1.4419   -3.2352   -0.5923 C   0  0  0  0  0  0  0  0  0  0  0  0
    1.2808   -4.4118   -0.8796 O   0  0  0  0  0  0  0  0  0  0  0  0
    2.6887   -2.7713    0.0324 C   0  0  0  0  0  0  0  0  0  0  0  0
    2.8139   -1.4245    0.3946 C   0  0  0  0  0  0  0  0  0  0  0  0
    3.9909   -1.0558    1.0783 C   0  0  0  0  0  0  0  0  0  0  0  0
    5.0088   -1.9831    1.3433 C   0  0  0  0  0  0  0  0  0  0  0  0
    4.8779   -3.3017    0.9250 C   0  0  0  0  0  0  0  0  0  0  0  0
    3.7141   -3.7001    0.2740 C   0  0  0  0  0  0  0  0  0  0  0  0
   -0.5627    0.1038   -0.3981 C   0  0  0  0  0  0  0  0  0  0  0  0
   -1.9754   -0.3366   -0.5113 C   0  0  0  0  0  0  0  0  0  0  0  0
   -2.8006   -0.0098   -1.5996 C   0  0  0  0  0  0  0  0  0  0  0  0
   -4.1422   -0.4237   -1.6461 C   0  0  0  0  0  0  0  0  0  0  0  0
   -4.6597   -1.2087   -0.6098 C   0  0  0  0  0  0  0  0  0  0  0  0
   -3.8552   -1.5598    0.4767 C   0  0  0  0  0  0  0  0  0  0  0  0
   -2.5315   -1.1136    0.5256 C   0  0  0  0  0  0  0  0  0  0  0  0
   -6.0556   -1.6618   -0.6502 N   0  0  0  0  0  0  0  0  0  0  0  0
   -6.8505   -1.0255   -1.3614 O   0  0  0  0  0  0  0  0  0  0  0  0
   -6.3603   -2.6461    0.0390 O   0  0  0  0  0  0  0  0  0  0  0  0
   -0.2399    1.4767   -0.1608 C   0  0  0  0  0  0  0  0  0  0  0  0
   -1.1494    2.5606   -0.2836 C   0  0  0  0  0  0  0  0  0  0  0  0
   -0.7564    3.8815   -0.0590 C   0  0  0  0  0  0  0  0  0  0  0  0
    1.7226    5.8689   -0.1438 H   0  0  0  0  0  0  0  0  0  0  0  0
    1.4420    5.6240    1.6044 H   0  0  0  0  0  0  0  0  0  0  0  0
    0.1488    6.2554    0.5788 H   0  0  0  0  0  0  0  0  0  0  0  0
    2.4667    3.2989    0.8036 H   0  0  0  0  0  0  0  0  0  0  0  0
    4.1198   -0.0305    1.4291 H   0  0  0  0  0  0  0  0  0  0  0  0
    5.9061   -1.6674    1.8732 H   0  0  0  0  0  0  0  0  0  0  0  0
    5.6770   -4.0190    1.1161 H   0  0  0  0  0  0  0  0  0  0  0  0
    3.5991   -4.7392   -0.0305 H   0  0  0  0  0  0  0  0  0  0  0  0
   -2.4008    0.5707   -2.4291 H   0  0  0  0  0  0  0  0  0  0  0  0
   -4.7592   -0.1415   -2.4973 H   0  0  0  0  0  0  0  0  0  0  0  0
   -4.2338   -2.1769    1.2868 H   0  0  0  0  0  0  0  0  0  0  0  0
   -1.9243   -1.3977    1.3829 H   0  0  0  0  0  0  0  0  0  0  0  0
   -2.1832    2.4004   -0.5804 H   0  0  0  0  0  0  0  0  0  0  0  0
   -1.4743    4.6902   -0.1907 H   0  0  0  0  0  0  0  0  0  0  0  0
  1 31  1  0  0  0  0
  1 32  1  0  0  0  0
  1 33  1  0  0  0  0
  2  1  1  0  0  0  0
  3  2  2  0  0  0  0
  3 34  1  0  0  0  0
  4  3  1  0  0  0  0
  5  4  2  0  0  0  0
  6  5  1  0  0  0  0
  7  6  2  0  0  0  0
  8  7  1  0  0  0  0
  9  8  2  0  0  0  0
 10  8  1  0  0  0  0
 11 10  2  0  0  0  0
 12 10  1  0  0  0  0
 13 12  2  0  0  0  0
 13  6  1  0  0  0  0
 14 13  1  0  0  0  0
 14 35  1  0  0  0  0
 15 14  2  0  0  0  0
 15 36  1  0  0  0  0
 16 15  1  0  0  0  0
 16 37  1  0  0  0  0
 17 16  2  0  0  0  0
 17 12  1  0  0  0  0
 17 38  1  0  0  0  0
 18  7  1  0  0  0  0
 19 18  1  0  0  0  0
 20 19  2  0  0  0  0
 20 39  1  0  0  0  0
 21 20  1  0  0  0  0
 21 40  1  0  0  0  0
 22 21  2  0  0  0  0
 23 22  1  0  0  0  0
 23 41  1  0  0  0  0
 24 23  2  0  0  0  0
 24 19  1  0  0  0  0
 24 42  1  0  0  0  0
 25 22  1  0  0  0  0
 26 25  2  0  0  0  0
 27 25  2  0  0  0  0
 28 18  2  0  0  0  0
 28  4  1  0  0  0  0
 29 28  1  0  0  0  0
 29 43  1  0  0  0  0
 30 29  2  0  0  0  0
 30  2  1  0  0  0  0
 30 44  1  0  0  0  0
M  END
>  <energy>
163.49732186470345

$$$$
