>30.sdf
 OpenBabel10052218013D

 48 51  0  0  0  0  0  0  0  0999 V2000
    6.3749    1.8036   -2.3839 O   0  0  0  0  0  0  0  0  0  0  0  0
    5.5582    0.8071   -1.9815 C   0  0  0  0  0  0  0  0  0  0  0  0
    5.0434   -0.0846   -2.9315 C   0  0  0  0  0  0  0  0  0  0  0  0
    4.1602   -1.1008   -2.5478 C   0  0  0  0  0  0  0  0  0  0  0  0
    3.8043   -1.2484   -1.1956 C   0  0  0  0  0  0  0  0  0  0  0  0
    2.7853   -2.2097   -0.7163 C   0  0  0  0  0  0  0  0  0  0  0  0
    1.8022   -2.6935   -1.4972 C   0  0  0  0  0  0  0  0  0  0  0  0
    0.5877   -3.0906   -0.7853 C   0  0  0  0  0  0  0  0  0  0  0  0
   -0.4282   -2.2060   -0.8632 N   0  0  0  0  0  0  0  0  0  0  0  0
   -1.4405   -2.1845    0.0282 C   0  0  0  0  0  0  0  0  0  0  0  0
   -1.5160   -3.1631    1.0333 C   0  0  0  0  0  0  0  0  0  0  0  0
   -0.5258   -4.1602    1.0820 C   0  0  0  0  0  0  0  0  0  0  0  0
    0.5623   -4.0951    0.1975 C   0  0  0  0  0  0  0  0  0  0  0  0
   -2.5336   -3.0832    1.9936 C   0  0  0  0  0  0  0  0  0  0  0  0
   -3.3958   -1.9750    2.0072 C   0  0  0  0  0  0  0  0  0  0  0  0
   -3.2629   -0.9496    1.0471 C   0  0  0  0  0  0  0  0  0  0  0  0
   -4.0493    0.3143    1.2033 C   0  0  0  0  0  0  0  0  0  0  0  0
   -5.1819    0.2555    1.6592 O   0  0  0  0  0  0  0  0  0  0  0  0
   -3.4221    1.6697    0.9725 C   0  0  0  0  0  0  0  0  0  0  0  0
   -4.2299    2.8169    0.8541 C   0  0  0  0  0  0  0  0  0  0  0  0
   -3.6543    4.0895    0.6309 C   0  0  0  0  0  0  0  0  0  0  0  0
   -2.2547    4.2026    0.5389 C   0  0  0  0  0  0  0  0  0  0  0  0
   -1.4470    3.0798    0.6819 C   0  0  0  0  0  0  0  0  0  0  0  0
   -2.0167    1.8288    0.9051 C   0  0  0  0  0  0  0  0  0  0  0  0
   -4.4797    5.2489    0.4972 N   0  0  0  0  0  0  0  0  0  0  0  0
   -5.6667    5.1585    0.5820 O   0  0  0  0  0  0  0  0  0  0  0  0
   -3.9877    6.3204    0.3016 O   0  0  0  0  0  0  0  0  0  0  0  0
   -2.3207   -1.1098    0.0023 C   0  0  0  0  0  0  0  0  0  0  0  0
   -2.2159   -0.2269   -1.0201 O   0  0  0  0  0  0  0  0  0  0  0  0
    4.3433   -0.3674   -0.2442 C   0  0  0  0  0  0  0  0  0  0  0  0
    5.2037    0.6658   -0.6293 C   0  0  0  0  0  0  0  0  0  0  0  0
    5.6681    1.5377    0.2911 O   0  0  0  0  0  0  0  0  0  0  0  0
    6.7290    2.4601   -1.7671 H   0  0  0  0  0  0  0  0  0  0  0  0
    5.3100    0.0268   -3.9744 H   0  0  0  0  0  0  0  0  0  0  0  0
    3.7547   -1.7559   -3.3063 H   0  0  0  0  0  0  0  0  0  0  0  0
    2.6911   -2.3315    0.3624 H   0  0  0  0  0  0  0  0  0  0  0  0
    1.7495   -2.3934   -2.5380 H   0  0  0  0  0  0  0  0  0  0  0  0
   -0.5417   -4.9171    1.8570 H   0  0  0  0  0  0  0  0  0  0  0  0
    1.3935   -4.7804    0.3088 H   0  0  0  0  0  0  0  0  0  0  0  0
   -2.6105   -3.8290    2.7758 H   0  0  0  0  0  0  0  0  0  0  0  0
   -4.1179   -1.8828    2.8089 H   0  0  0  0  0  0  0  0  0  0  0  0
   -5.3052    2.7190    0.9214 H   0  0  0  0  0  0  0  0  0  0  0  0
   -1.7860    5.1632    0.3647 H   0  0  0  0  0  0  0  0  0  0  0  0
   -0.3696    3.1783    0.6219 H   0  0  0  0  0  0  0  0  0  0  0  0
   -1.3476    0.9910    1.0312 H   0  0  0  0  0  0  0  0  0  0  0  0
   -2.8662    0.4640   -1.1978 H   0  0  0  0  0  0  0  0  0  0  0  0
    4.0510   -0.4510    0.7971 H   0  0  0  0  0  0  0  0  0  0  0  0
    5.4017    1.4874    1.2210 H   0  0  0  0  0  0  0  0  0  0  0  0
  1 33  1  0  0  0  0
  2  1  1  0  0  0  0
  3  2  2  0  0  0  0
  3 34  1  0  0  0  0
  4  3  1  0  0  0  0
  4 35  1  0  0  0  0
  5  4  2  0  0  0  0
  6  5  1  0  0  0  0
  6 36  1  0  0  0  0
  7  6  2  0  0  0  0
  7 37  1  0  0  0  0
  8  7  1  0  0  0  0
  9  8  2  0  0  0  0
 10  9  1  0  0  0  0
 11 10  2  0  0  0  0
 12 11  1  0  0  0  0
 12 38  1  0  0  0  0
 13 12  2  0  0  0  0
 13  8  1  0  0  0  0
 13 39  1  0  0  0  0
 14 11  1  0  0  0  0
 14 40  1  0  0  0  0
 15 14  2  0  0  0  0
 15 41  1  0  0  0  0
 16 15  1  0  0  0  0
 17 16  1  0  0  0  0
 18 17  2  0  0  0  0
 19 17  1  0  0  0  0
 20 19  2  0  0  0  0
 20 42  1  0  0  0  0
 21 20  1  0  0  0  0
 22 21  2  0  0  0  0
 22 43  1  0  0  0  0
 23 22  1  0  0  0  0
 23 44  1  0  0  0  0
 24 23  2  0  0  0  0
 24 19  1  0  0  0  0
 24 45  1  0  0  0  0
 25 21  1  0  0  0  0
 26 25  2  0  0  0  0
 27 25  2  0  0  0  0
 28 16  2  0  0  0  0
 28 10  1  0  0  0  0
 29 28  1  0  0  0  0
 29 46  1  0  0  0  0
 30  5  1  0  0  0  0
 30 47  1  0  0  0  0
 31 30  2  0  0  0  0
 31  2  1  0  0  0  0
 32 31  1  0  0  0  0
 32 48  1  0  0  0  0
M  END
>  <MOL Chiral Flag>
0

>  <energy>
150.42253397325183

$$$$
