>300.sdf
 OpenBabel10062212223D

 42 42  0  0  0  0  0  0  0  0999 V2000
   -5.6930   -4.9436    1.4491 C   0  0  0  0  0  0  0  0  0  0  0  0
   -4.8331   -4.3168    0.3534 C   0  0  0  0  0  0  0  0  0  0  0  0
   -3.4117   -4.0729    0.8675 C   0  0  0  0  0  0  0  0  0  0  0  0
   -2.5148   -3.4204   -0.1909 C   0  0  0  0  0  0  0  0  0  0  0  0
   -1.1523   -3.0789    0.4274 C   0  0  0  0  0  0  0  0  0  0  0  0
   -0.2011   -2.4513   -0.5927 C   0  0  0  0  0  0  0  0  0  0  0  0
    1.1387   -2.0817    0.0647 C   0  0  0  0  0  0  0  0  0  0  0  0
    2.1153   -1.5454   -0.9867 C   0  0  0  0  0  0  0  0  0  0  0  0
    3.4412   -1.2529   -0.4138 N   0  3  0  0  0  0  0  0  0  0  0  0
    4.3515   -0.8467   -1.4991 C   0  0  0  0  0  0  0  0  0  0  0  0
    5.7970   -0.6406   -1.0940 C   0  0  0  0  0  0  0  0  0  0  0  0
    6.2606   -0.7744    0.2328 C   0  0  0  0  0  0  0  0  0  0  0  0
    7.6184   -0.5869    0.5226 C   0  0  0  0  0  0  0  0  0  0  0  0
    8.5195   -0.2685   -0.4967 C   0  0  0  0  0  0  0  0  0  0  0  0
    8.0675   -0.1316   -1.8099 C   0  0  0  0  0  0  0  0  0  0  0  0
    6.7159   -0.3145   -2.1056 C   0  0  0  0  0  0  0  0  0  0  0  0
   -5.2788   -5.9307    1.7463 H   0  0  0  0  0  0  0  0  0  0  0  0
   -6.7302   -5.0862    1.0813 H   0  0  0  0  0  0  0  0  0  0  0  0
   -5.7220   -4.2811    2.3414 H   0  0  0  0  0  0  0  0  0  0  0  0
   -4.8149   -4.9911   -0.5302 H   0  0  0  0  0  0  0  0  0  0  0  0
   -5.2879   -3.3470    0.0545 H   0  0  0  0  0  0  0  0  0  0  0  0
   -3.4723   -3.4010    1.7512 H   0  0  0  0  0  0  0  0  0  0  0  0
   -2.9569   -5.0389    1.1822 H   0  0  0  0  0  0  0  0  0  0  0  0
   -2.3889   -4.1161   -1.0508 H   0  0  0  0  0  0  0  0  0  0  0  0
   -2.9875   -2.4827   -0.5580 H   0  0  0  0  0  0  0  0  0  0  0  0
   -0.6870   -4.0061    0.8289 H   0  0  0  0  0  0  0  0  0  0  0  0
   -1.3095   -2.3638    1.2645 H   0  0  0  0  0  0  0  0  0  0  0  0
   -0.6610   -1.5377   -1.0301 H   0  0  0  0  0  0  0  0  0  0  0  0
   -0.0245   -3.1870   -1.4088 H   0  0  0  0  0  0  0  0  0  0  0  0
    1.5770   -2.9898    0.5331 H   0  0  0  0  0  0  0  0  0  0  0  0
    0.9746   -1.3153    0.8544 H   0  0  0  0  0  0  0  0  0  0  0  0
    1.6884   -0.6274   -1.4511 H   0  0  0  0  0  0  0  0  0  0  0  0
    2.2193   -2.3268   -1.7740 H   0  0  0  0  0  0  0  0  0  0  0  0
    3.8079   -2.1232    0.0389 H   0  0  0  0  0  0  0  0  0  0  0  0
    3.3590   -0.4844    0.2937 H   0  0  0  0  0  0  0  0  0  0  0  0
    3.9812    0.0964   -1.9611 H   0  0  0  0  0  0  0  0  0  0  0  0
    4.3585   -1.6405   -2.2804 H   0  0  0  0  0  0  0  0  0  0  0  0
    5.5880   -1.0224    1.0411 H   0  0  0  0  0  0  0  0  0  0  0  0
    7.9743   -0.6916    1.5397 H   0  0  0  0  0  0  0  0  0  0  0  0
    9.5688   -0.1282   -0.2712 H   0  0  0  0  0  0  0  0  0  0  0  0
    8.7642    0.1133   -2.6010 H   0  0  0  0  0  0  0  0  0  0  0  0
    6.3795   -0.2101   -3.1307 H   0  0  0  0  0  0  0  0  0  0  0  0
  1 17  1  0  0  0  0
  1 18  1  0  0  0  0
  1 19  1  0  0  0  0
  2  1  1  0  0  0  0
  2 20  1  0  0  0  0
  2 21  1  0  0  0  0
  3  2  1  0  0  0  0
  3 22  1  0  0  0  0
  3 23  1  0  0  0  0
  4  3  1  0  0  0  0
  4 24  1  0  0  0  0
  4 25  1  0  0  0  0
  5  4  1  0  0  0  0
  5 26  1  0  0  0  0
  5 27  1  0  0  0  0
  6  5  1  0  0  0  0
  6 28  1  0  0  0  0
  6 29  1  0  0  0  0
  7  6  1  0  0  0  0
  7 30  1  0  0  0  0
  7 31  1  0  0  0  0
  8  7  1  0  0  0  0
  8 32  1  0  0  0  0
  8 33  1  0  0  0  0
  9  8  1  0  0  0  0
  9 34  1  0  0  0  0
  9 35  1  0  0  0  0
 10  9  1  0  0  0  0
 10 36  1  0  0  0  0
 10 37  1  0  0  0  0
 11 10  1  0  0  0  0
 12 11  2  0  0  0  0
 12 38  1  0  0  0  0
 13 12  1  0  0  0  0
 13 39  1  0  0  0  0
 14 13  2  0  0  0  0
 14 40  1  0  0  0  0
 15 14  1  0  0  0  0
 15 41  1  0  0  0  0
 16 15  2  0  0  0  0
 16 11  1  0  0  0  0
 16 42  1  0  0  0  0
M  CHG  1   9   1
M  END
>  <MOL Chiral Flag>
0

>  <energy>
20.728832890786176

$$$$
