>303.sdf
 OpenBabel10062212253D

 61 64  0  0  0  0  0  0  0  0999 V2000
   12.8814    0.2536    1.6333 O   0  0  0  0  0  0  0  0  0  0  0  0
   12.4030    0.2025    0.5113 C   0  0  0  0  0  0  0  0  0  0  0  0
   13.2296   -0.0433   -0.5831 C   0  0  0  0  0  0  0  0  0  0  0  0
   12.6671   -0.0995   -1.8607 C   0  0  0  0  0  0  0  0  0  0  0  0
   11.3591    0.0789   -2.0347 O   0  0  0  0  0  0  0  0  0  0  0  0
   10.5297    0.3157   -1.0201 C   0  0  0  0  0  0  0  0  0  0  0  0
    9.1604    0.4918   -1.2647 C   0  0  0  0  0  0  0  0  0  0  0  0
    8.2718    0.7353   -0.2079 C   0  0  0  0  0  0  0  0  0  0  0  0
    6.9432    0.8897   -0.4821 O   0  0  0  0  0  0  0  0  0  0  0  0
    5.9794    1.0691    0.4931 C   0  0  0  0  0  0  0  0  0  0  0  0
    4.5648    1.1703   -0.0951 C   0  0  0  0  0  0  0  0  0  0  0  0
    3.5762    1.3007    1.0725 C   0  0  0  0  0  0  0  0  0  0  0  0
    2.0905    1.3670    0.6793 C   0  0  0  0  0  0  0  0  0  0  0  0
    1.2709    1.4016    1.9812 C   0  0  0  0  0  0  0  0  0  0  0  0
   -0.2532    1.3651    1.8379 C   0  0  0  0  0  0  0  0  0  0  0  0
   -0.8821    2.6261    1.2228 C   0  0  0  0  0  0  0  0  0  0  0  0
   -2.4026    2.5731    1.4458 C   0  0  0  0  0  0  0  0  0  0  0  0
   -3.1555    3.7900    0.9131 C   0  0  0  0  0  0  0  0  0  0  0  0
   -4.4712    3.6748    1.3224 O   0  0  0  0  0  0  0  0  0  0  0  0
   -5.4907    4.5287    1.0444 C   0  0  0  0  0  0  0  0  0  0  0  0
   -6.7190    4.3430    1.7014 C   0  0  0  0  0  0  0  0  0  0  0  0
   -6.8635    3.3348    2.6070 N   0  0  0  0  0  0  0  0  0  0  0  0
   -8.0337    3.1296    3.2692 C   0  0  0  0  0  0  0  0  0  0  0  0
   -9.1318    3.9584    3.0287 C   0  0  0  0  0  0  0  0  0  0  0  0
   -9.0192    4.9996    2.1058 C   0  0  0  0  0  0  0  0  0  0  0  0
   -7.8068    5.2041    1.4334 C   0  0  0  0  0  0  0  0  0  0  0  0
   -7.6602    6.2444    0.5072 C   0  0  0  0  0  0  0  0  0  0  0  0
   -6.4379    6.4327   -0.1436 C   0  0  0  0  0  0  0  0  0  0  0  0
   -5.3560    5.5854    0.1213 C   0  0  0  0  0  0  0  0  0  0  0  0
    8.7781    0.8056    1.1116 C   0  0  0  0  0  0  0  0  0  0  0  0
   10.1404    0.6339    1.3613 C   0  0  0  0  0  0  0  0  0  0  0  0
   11.0259    0.3864    0.3024 C   0  0  0  0  0  0  0  0  0  0  0  0
   14.2948   -0.1899   -0.4498 H   0  0  0  0  0  0  0  0  0  0  0  0
   13.3001   -0.2904   -2.7166 H   0  0  0  0  0  0  0  0  0  0  0  0
    8.7855    0.4339   -2.2793 H   0  0  0  0  0  0  0  0  0  0  0  0
    6.1986    1.9998    1.0626 H   0  0  0  0  0  0  0  0  0  0  0  0
    6.0105    0.1964    1.1841 H   0  0  0  0  0  0  0  0  0  0  0  0
    4.3380    0.2497   -0.6760 H   0  0  0  0  0  0  0  0  0  0  0  0
    4.4911    2.0523   -0.7675 H   0  0  0  0  0  0  0  0  0  0  0  0
    3.8301    2.2129    1.6575 H   0  0  0  0  0  0  0  0  0  0  0  0
    3.7171    0.4118    1.7282 H   0  0  0  0  0  0  0  0  0  0  0  0
    1.8921    2.2702    0.0631 H   0  0  0  0  0  0  0  0  0  0  0  0
    1.8199    0.4603    0.0953 H   0  0  0  0  0  0  0  0  0  0  0  0
    1.5429    0.4977    2.5712 H   0  0  0  0  0  0  0  0  0  0  0  0
    1.5531    2.2961    2.5795 H   0  0  0  0  0  0  0  0  0  0  0  0
   -0.6368    1.2709    2.8784 H   0  0  0  0  0  0  0  0  0  0  0  0
   -0.5716    0.4604    1.2749 H   0  0  0  0  0  0  0  0  0  0  0  0
   -0.4891    3.5271    1.7431 H   0  0  0  0  0  0  0  0  0  0  0  0
   -0.6324    2.6951    0.1421 H   0  0  0  0  0  0  0  0  0  0  0  0
   -2.8257    1.6579    0.9762 H   0  0  0  0  0  0  0  0  0  0  0  0
   -2.5855    2.5212    2.5431 H   0  0  0  0  0  0  0  0  0  0  0  0
   -3.0838    3.8138   -0.1959 H   0  0  0  0  0  0  0  0  0  0  0  0
   -2.7226    4.7217    1.3396 H   0  0  0  0  0  0  0  0  0  0  0  0
   -8.1120    2.3219    3.9848 H   0  0  0  0  0  0  0  0  0  0  0  0
  -10.0631    3.7946    3.5555 H   0  0  0  0  0  0  0  0  0  0  0  0
   -9.8709    5.6431    1.9199 H   0  0  0  0  0  0  0  0  0  0  0  0
   -8.4881    6.9094    0.2912 H   0  0  0  0  0  0  0  0  0  0  0  0
   -6.3286    7.2388   -0.8574 H   0  0  0  0  0  0  0  0  0  0  0  0
   -4.4226    5.7536   -0.3978 H   0  0  0  0  0  0  0  0  0  0  0  0
    8.1258    0.9914    1.9531 H   0  0  0  0  0  0  0  0  0  0  0  0
   10.4995    0.6919    2.3820 H   0  0  0  0  0  0  0  0  0  0  0  0
  2  1  2  0  0  0  0
  3  2  1  0  0  0  0
  3 33  1  0  0  0  0
  4  3  2  0  0  0  0
  4 34  1  0  0  0  0
  5  4  1  0  0  0  0
  6  5  1  0  0  0  0
  7  6  2  0  0  0  0
  7 35  1  0  0  0  0
  8  7  1  0  0  0  0
  9  8  1  0  0  0  0
 10  9  1  0  0  0  0
 10 36  1  0  0  0  0
 10 37  1  0  0  0  0
 11 10  1  0  0  0  0
 11 38  1  0  0  0  0
 11 39  1  0  0  0  0
 12 11  1  0  0  0  0
 12 40  1  0  0  0  0
 12 41  1  0  0  0  0
 13 12  1  0  0  0  0
 13 42  1  0  0  0  0
 13 43  1  0  0  0  0
 14 13  1  0  0  0  0
 14 44  1  0  0  0  0
 14 45  1  0  0  0  0
 15 14  1  0  0  0  0
 15 46  1  0  0  0  0
 15 47  1  0  0  0  0
 16 15  1  0  0  0  0
 16 48  1  0  0  0  0
 16 49  1  0  0  0  0
 17 16  1  0  0  0  0
 17 50  1  0  0  0  0
 17 51  1  0  0  0  0
 18 17  1  0  0  0  0
 18 52  1  0  0  0  0
 18 53  1  0  0  0  0
 19 18  1  0  0  0  0
 20 19  1  0  0  0  0
 21 20  2  0  0  0  0
 22 21  1  0  0  0  0
 23 22  2  0  0  0  0
 23 54  1  0  0  0  0
 24 23  1  0  0  0  0
 24 55  1  0  0  0  0
 25 24  2  0  0  0  0
 25 56  1  0  0  0  0
 26 25  1  0  0  0  0
 26 21  1  0  0  0  0
 27 26  2  0  0  0  0
 27 57  1  0  0  0  0
 28 27  1  0  0  0  0
 28 58  1  0  0  0  0
 29 28  2  0  0  0  0
 29 20  1  0  0  0  0
 29 59  1  0  0  0  0
 30  8  2  0  0  0  0
 30 60  1  0  0  0  0
 31 30  1  0  0  0  0
 31 61  1  0  0  0  0
 32 31  2  0  0  0  0
 32  2  1  0  0  0  0
 32  6  1  0  0  0  0
M  END
>  <MOL Chiral Flag>
0

>  <energy>
108.78292070975854

$$$$
