>31.sdf
 OpenBabel10052218023D

 65 67  0  0  0  0  0  0  0  0999 V2000
   -1.7625    1.7806   -2.3416 C   0  0  0  0  0  0  0  0  0  0  0  0
   -3.0768    2.0108   -1.5833 C   0  0  0  0  0  0  0  0  0  0  0  0
   -2.9712    1.7097   -0.1302 N   0  3  0  0  0  0  0  0  0  0  0  0
   -4.2074    2.1375    0.5800 C   0  0  0  0  0  0  0  0  0  0  0  0
   -3.9070    2.6267    2.0030 C   0  0  0  0  0  0  0  0  0  0  0  0
   -2.6063    0.2935    0.1830 C   0  0  0  0  0  0  0  0  0  0  0  0
   -3.4338   -0.7702   -0.5823 C   0  0  0  0  0  0  0  0  0  0  0  0
   -3.0847   -2.2461   -0.2977 C   0  0  0  0  0  0  0  0  0  0  0  0
   -1.5816   -2.6031   -0.4444 C   0  0  2  0  0  0  0  0  0  0  0  0
   -1.4153   -4.0943   -0.7554 C   0  0  0  0  0  0  0  0  0  0  0  0
   -0.9046   -2.3316    0.8212 N   0  0  0  0  0  0  0  0  0  0  0  0
    0.2344   -1.4736    1.0319 C   0  0  0  0  0  0  0  0  0  0  0  0
    0.9245   -0.8916   -0.0569 C   0  0  0  0  0  0  0  0  0  0  0  0
    2.0306   -0.0573    0.1626 C   0  0  0  0  0  0  0  0  0  0  0  0
    2.4371    0.1920    1.4332 N   0  0  0  0  0  0  0  0  0  0  0  0
    1.8171   -0.3308    2.5150 C   0  0  0  0  0  0  0  0  0  0  0  0
    0.6946   -1.1828    2.3575 C   0  0  0  0  0  0  0  0  0  0  0  0
    0.0758   -1.6896    3.5308 C   0  0  0  0  0  0  0  0  0  0  0  0
    0.5649   -1.3541    4.7961 C   0  0  0  0  0  0  0  0  0  0  0  0
    1.6692   -0.5155    4.9270 C   0  0  0  0  0  0  0  0  0  0  0  0
    2.2676   -0.0950    6.5214 Cl  0  0  0  0  0  0  0  0  0  0  0  0
    2.2935   -0.0065    3.7905 C   0  0  0  0  0  0  0  0  0  0  0  0
    2.7538    0.5999   -1.0016 C   0  0  0  0  0  0  0  0  0  0  0  0
    3.3364   -0.4449   -1.9820 C   0  0  0  0  0  0  0  0  0  0  0  0
    4.0340    0.2545   -3.1603 C   0  0  0  0  0  0  0  0  0  0  0  0
    5.1554    1.1717   -2.6570 C   0  0  0  0  0  0  0  0  0  0  0  0
    4.5911    2.2158   -1.6877 C   0  0  0  0  0  0  0  0  0  0  0  0
    3.8948    1.5265   -0.5098 C   0  0  0  0  0  0  0  0  0  0  0  0
   -1.8951    2.0781   -3.4032 H   0  0  0  0  0  0  0  0  0  0  0  0
   -1.4530    0.7168   -2.3237 H   0  0  0  0  0  0  0  0  0  0  0  0
   -0.9538    2.4009   -1.9002 H   0  0  0  0  0  0  0  0  0  0  0  0
   -3.9050    1.4404   -2.0560 H   0  0  0  0  0  0  0  0  0  0  0  0
   -3.3211    3.0887   -1.7195 H   0  0  0  0  0  0  0  0  0  0  0  0
   -2.1893    2.3146    0.2197 H   0  0  0  0  0  0  0  0  0  0  0  0
   -4.9633    1.3250    0.6086 H   0  0  0  0  0  0  0  0  0  0  0  0
   -4.6855    3.0034    0.0689 H   0  0  0  0  0  0  0  0  0  0  0  0
   -3.4347    1.8342    2.6165 H   0  0  0  0  0  0  0  0  0  0  0  0
   -4.8476    2.9513    2.4951 H   0  0  0  0  0  0  0  0  0  0  0  0
   -3.2234    3.5036    1.9598 H   0  0  0  0  0  0  0  0  0  0  0  0
   -2.6772    0.1070    1.2760 H   0  0  0  0  0  0  0  0  0  0  0  0
   -1.5472    0.1497   -0.0918 H   0  0  0  0  0  0  0  0  0  0  0  0
   -3.2696   -0.6322   -1.6689 H   0  0  0  0  0  0  0  0  0  0  0  0
   -4.5176   -0.6412   -0.3818 H   0  0  0  0  0  0  0  0  0  0  0  0
   -3.6768   -2.8197   -1.0455 H   0  0  0  0  0  0  0  0  0  0  0  0
   -3.4484   -2.5639    0.7048 H   0  0  0  0  0  0  0  0  0  0  0  0
   -1.1749   -2.0632   -1.3172 H   0  0  0  0  0  0  0  0  0  0  0  0
   -1.8361   -4.7232    0.0574 H   0  0  0  0  0  0  0  0  0  0  0  0
   -0.3358   -4.3313   -0.8728 H   0  0  0  0  0  0  0  0  0  0  0  0
   -1.9270   -4.3478   -1.7090 H   0  0  0  0  0  0  0  0  0  0  0  0
   -1.2954   -2.8354    1.6224 H   0  0  0  0  0  0  0  0  0  0  0  0
    0.6215   -1.0686   -1.0730 H   0  0  0  0  0  0  0  0  0  0  0  0
   -0.7837   -2.3340    3.5106 H   0  0  0  0  0  0  0  0  0  0  0  0
    0.0773   -1.7472    5.6795 H   0  0  0  0  0  0  0  0  0  0  0  0
    3.1493    0.6493    3.8963 H   0  0  0  0  0  0  0  0  0  0  0  0
    2.0089    1.2235   -1.5455 H   0  0  0  0  0  0  0  0  0  0  0  0
    2.5317   -1.0926   -2.3892 H   0  0  0  0  0  0  0  0  0  0  0  0
    4.0681   -1.0935   -1.4510 H   0  0  0  0  0  0  0  0  0  0  0  0
    3.2891    0.8584   -3.7249 H   0  0  0  0  0  0  0  0  0  0  0  0
    4.4580   -0.5056   -3.8506 H   0  0  0  0  0  0  0  0  0  0  0  0
    5.6363    1.6852   -3.5171 H   0  0  0  0  0  0  0  0  0  0  0  0
    5.9283    0.5621   -2.1387 H   0  0  0  0  0  0  0  0  0  0  0  0
    3.8601    2.8636   -2.2195 H   0  0  0  0  0  0  0  0  0  0  0  0
    5.4150    2.8583   -1.3088 H   0  0  0  0  0  0  0  0  0  0  0  0
    3.4866    2.3068    0.1690 H   0  0  0  0  0  0  0  0  0  0  0  0
    4.6461    0.9291    0.0554 H   0  0  0  0  0  0  0  0  0  0  0  0
  1 29  1  0  0  0  0
  1 30  1  0  0  0  0
  1 31  1  0  0  0  0
  2  1  1  0  0  0  0
  2 32  1  0  0  0  0
  2 33  1  0  0  0  0
  3  2  1  0  0  0  0
  3 34  1  0  0  0  0
  4  3  1  0  0  0  0
  4 35  1  0  0  0  0
  4 36  1  0  0  0  0
  5  4  1  0  0  0  0
  5 37  1  0  0  0  0
  5 38  1  0  0  0  0
  5 39  1  0  0  0  0
  6  3  1  0  0  0  0
  6 40  1  0  0  0  0
  6 41  1  0  0  0  0
  7  6  1  0  0  0  0
  7 42  1  0  0  0  0
  7 43  1  0  0  0  0
  8  7  1  0  0  0  0
  8 44  1  0  0  0  0
  8 45  1  0  0  0  0
  9  8  1  0  0  0  0
  9 46  1  6  0  0  0
 10  9  1  0  0  0  0
 10 47  1  0  0  0  0
 10 48  1  0  0  0  0
 10 49  1  0  0  0  0
 11  9  1  0  0  0  0
 11 50  1  0  0  0  0
 12 11  1  0  0  0  0
 13 12  2  0  0  0  0
 13 51  1  0  0  0  0
 14 13  1  0  0  0  0
 15 14  2  0  0  0  0
 16 15  1  0  0  0  0
 17 16  2  0  0  0  0
 17 12  1  0  0  0  0
 18 17  1  0  0  0  0
 18 52  1  0  0  0  0
 19 18  2  0  0  0  0
 19 53  1  0  0  0  0
 20 19  1  0  0  0  0
 21 20  1  0  0  0  0
 22 20  2  0  0  0  0
 22 16  1  0  0  0  0
 22 54  1  0  0  0  0
 23 14  1  0  0  0  0
 23 55  1  0  0  0  0
 24 23  1  0  0  0  0
 24 56  1  0  0  0  0
 24 57  1  0  0  0  0
 25 24  1  0  0  0  0
 25 58  1  0  0  0  0
 25 59  1  0  0  0  0
 26 25  1  0  0  0  0
 26 60  1  0  0  0  0
 26 61  1  0  0  0  0
 27 26  1  0  0  0  0
 27 62  1  0  0  0  0
 27 63  1  0  0  0  0
 28 27  1  0  0  0  0
 28 23  1  0  0  0  0
 28 64  1  0  0  0  0
 28 65  1  0  0  0  0
M  CHG  1   3   1
M  END
>  <MOL Chiral Flag>
0

>  <energy>
47.284490509386359

$$$$
