>310_2.sdf
 OpenBabel10102214243D

 50 53  0  0  0  0  0  0  0  0999 V2000
    4.0751    5.2277    0.2064 F   0  0  0  0  0  0  0  0  0  0  0  0
    3.0854    4.9834    1.1414 C   0  0  0  0  0  0  0  0  0  0  0  0
    2.2557    6.0873    1.2172 F   0  0  0  0  0  0  0  0  0  0  0  0
    3.6843    4.7979    2.3757 F   0  0  0  0  0  0  0  0  0  0  0  0
    2.2825    3.7773    0.7173 C   0  0  0  0  0  0  0  0  0  0  0  0
    1.6017    3.8004   -0.5054 C   0  0  0  0  0  0  0  0  0  0  0  0
    0.8532    2.6962   -0.9281 C   0  0  0  0  0  0  0  0  0  0  0  0
    0.7766    1.5245   -0.1283 C   0  0  0  0  0  0  0  0  0  0  0  0
    1.4625    1.5188    1.1106 C   0  0  0  0  0  0  0  0  0  0  0  0
    2.2025    2.6317    1.5228 C   0  0  0  0  0  0  0  0  0  0  0  0
    0.0100    0.4120   -0.6057 C   0  0  0  0  0  0  0  0  0  0  0  0
   -0.0510   -0.8257    0.1342 N   0  0  0  0  0  0  0  0  0  0  0  0
   -0.9030   -1.9666   -0.1955 C   0  0  0  0  0  0  0  0  0  0  0  0
   -1.6395   -2.5475    1.0365 C   0  0  0  0  0  0  0  0  0  0  0  0
   -0.6576   -3.0049    2.1204 C   0  0  0  0  0  0  0  0  0  0  0  0
   -1.2587   -3.8442    3.1636 N   0  0  0  0  0  0  0  0  0  0  0  0
   -2.4386   -3.5504    3.9717 C   0  0  1  0  0  0  0  0  0  0  0  0
   -2.3273   -4.5420    5.4886 S   0  0  0  0  0  0  0  0  0  0  0  0
   -1.4083   -5.8205    4.5572 C   0  0  0  0  0  0  0  0  0  0  0  0
   -0.8013   -5.1005    3.4024 C   0  0  0  0  0  0  0  0  0  0  0  0
    0.0699   -5.6234    2.7191 O   0  0  0  0  0  0  0  0  0  0  0  0
   -3.0958   -2.1779    4.1959 C   0  0  0  0  0  0  0  0  0  0  0  0
   -2.3802   -0.9921    4.5259 C   0  0  0  0  0  0  0  0  0  0  0  0
   -0.6364   -0.9431    4.7081 Cl  0  0  0  0  0  0  0  0  0  0  0  0
   -3.0767    0.2032    4.7745 C   0  0  0  0  0  0  0  0  0  0  0  0
   -4.4681    0.2385    4.7506 C   0  0  0  0  0  0  0  0  0  0  0  0
   -5.1863   -0.9156    4.4825 C   0  0  0  0  0  0  0  0  0  0  0  0
   -4.5284   -2.1130    4.2047 C   0  0  0  0  0  0  0  0  0  0  0  0
   -5.5629   -3.5251    3.9436 Cl  0  0  0  0  0  0  0  0  0  0  0  0
   -0.6403    0.5455   -1.8543 C   0  0  0  0  0  0  0  0  0  0  0  0
   -0.5302    1.7245   -2.5866 C   0  0  0  0  0  0  0  0  0  0  0  0
    0.2049    2.7588   -2.1176 N   0  0  0  0  0  0  0  0  0  0  0  0
    1.6542    4.6825   -1.1338 H   0  0  0  0  0  0  0  0  0  0  0  0
    1.4393    0.6769    1.7806 H   0  0  0  0  0  0  0  0  0  0  0  0
    2.7147    2.5923    2.4756 H   0  0  0  0  0  0  0  0  0  0  0  0
    0.6437   -0.9842    0.8691 H   0  0  0  0  0  0  0  0  0  0  0  0
   -1.6739   -1.7292   -0.9455 H   0  0  0  0  0  0  0  0  0  0  0  0
   -0.2559   -2.7679   -0.6149 H   0  0  0  0  0  0  0  0  0  0  0  0
   -2.3505   -1.8070    1.4589 H   0  0  0  0  0  0  0  0  0  0  0  0
   -2.2122   -3.4324    0.6845 H   0  0  0  0  0  0  0  0  0  0  0  0
   -0.1571   -2.1353    2.5590 H   0  0  0  0  0  0  0  0  0  0  0  0
    0.1554   -3.5686    1.6111 H   0  0  0  0  0  0  0  0  0  0  0  0
   -3.2100   -4.1368    3.4438 H   0  0  0  0  0  0  0  0  0  0  0  0
   -2.0680   -6.6456    4.2117 H   0  0  0  0  0  0  0  0  0  0  0  0
   -0.5966   -6.1984    5.2109 H   0  0  0  0  0  0  0  0  0  0  0  0
   -2.5365    1.1102    5.0143 H   0  0  0  0  0  0  0  0  0  0  0  0
   -4.9962    1.1588    4.9674 H   0  0  0  0  0  0  0  0  0  0  0  0
   -6.2696   -0.8883    4.5044 H   0  0  0  0  0  0  0  0  0  0  0  0
   -1.2133   -0.2497   -2.2962 H   0  0  0  0  0  0  0  0  0  0  0  0
   -1.0233    1.8113   -3.5457 H   0  0  0  0  0  0  0  0  0  0  0  0
  2  1  1  0  0  0  0
  3  2  1  0  0  0  0
  4  2  1  0  0  0  0
  5  2  1  0  0  0  0
  6  5  2  0  0  0  0
  6 33  1  0  0  0  0
  7  6  1  0  0  0  0
  8  7  2  0  0  0  0
  9  8  1  0  0  0  0
  9 34  1  0  0  0  0
 10  9  2  0  0  0  0
 10  5  1  0  0  0  0
 10 35  1  0  0  0  0
 11  8  1  0  0  0  0
 12 11  1  0  0  0  0
 12 36  1  0  0  0  0
 13 12  1  0  0  0  0
 13 37  1  0  0  0  0
 13 38  1  0  0  0  0
 14 13  1  0  0  0  0
 14 39  1  0  0  0  0
 14 40  1  0  0  0  0
 15 14  1  0  0  0  0
 15 41  1  0  0  0  0
 15 42  1  0  0  0  0
 16 15  1  0  0  0  0
 17 16  1  0  0  0  0
 17 43  1  6  0  0  0
 18 17  1  0  0  0  0
 19 18  1  0  0  0  0
 19 44  1  0  0  0  0
 19 45  1  0  0  0  0
 20 19  1  0  0  0  0
 20 16  1  0  0  0  0
 21 20  2  0  0  0  0
 22 17  1  0  0  0  0
 23 22  2  0  0  0  0
 24 23  1  0  0  0  0
 25 23  1  0  0  0  0
 25 46  1  0  0  0  0
 26 25  2  0  0  0  0
 26 47  1  0  0  0  0
 27 26  1  0  0  0  0
 27 48  1  0  0  0  0
 28 27  2  0  0  0  0
 28 22  1  0  0  0  0
 29 28  1  0  0  0  0
 30 11  2  0  0  0  0
 30 49  1  0  0  0  0
 31 30  1  0  0  0  0
 31 50  1  0  0  0  0
 32 31  2  0  0  0  0
 32  7  1  0  0  0  0
M  END
>  <MOL Chiral Flag>
0

>  <energy>
48.138744673892845

$$$$
