>317.sdf
 OpenBabel10062212363D

 43 46  0  0  0  0  0  0  0  0999 V2000
    0.7378    4.4286    1.2903 F   0  0  0  0  0  0  0  0  0  0  0  0
    1.9118    3.9580    0.7977 C   0  0  0  0  0  0  0  0  0  0  0  0
    2.0342    2.6034    0.4093 C   0  0  0  0  0  0  0  0  0  0  0  0
    0.8807    1.7447    0.5503 N   0  0  0  0  0  0  0  0  0  0  0  0
    0.7777    0.3496    0.2478 C   0  0  0  0  0  0  0  0  0  0  0  0
   -0.4236   -0.2758    0.3985 N   0  0  0  0  0  0  0  0  0  0  0  0
   -0.6034   -1.5902    0.0822 C   0  0  0  0  0  0  0  0  0  0  0  0
   -1.8915   -2.1858    0.2499 N   0  0  0  0  0  0  0  0  0  0  0  0
   -2.7975   -1.7661    1.3037 C   0  0  0  0  0  0  0  0  0  0  0  0
   -4.1433   -1.3136    0.7939 C   0  0  0  0  0  0  0  0  0  0  0  0
   -4.6681   -0.0801    1.2194 C   0  0  0  0  0  0  0  0  0  0  0  0
   -5.9395    0.3271    0.8065 C   0  0  0  0  0  0  0  0  0  0  0  0
   -6.6933   -0.4850   -0.0432 C   0  0  0  0  0  0  0  0  0  0  0  0
   -6.1781   -1.7091   -0.4793 C   0  0  0  0  0  0  0  0  0  0  0  0
   -4.9106   -2.1289   -0.0580 C   0  0  0  0  0  0  0  0  0  0  0  0
    0.5049   -2.3402   -0.3869 C   0  0  0  0  0  0  0  0  0  0  0  0
    0.4372   -3.7161   -0.7014 C   0  0  0  0  0  0  0  0  0  0  0  0
    1.5863   -4.4021   -1.1086 C   0  0  0  0  0  0  0  0  0  0  0  0
    2.8079   -3.7350   -1.2084 C   0  0  0  0  0  0  0  0  0  0  0  0
    2.8885   -2.3758   -0.9062 C   0  0  0  0  0  0  0  0  0  0  0  0
    1.7468   -1.6782   -0.4960 C   0  0  0  0  0  0  0  0  0  0  0  0
    1.8434   -0.3638   -0.1883 N   0  0  0  0  0  0  0  0  0  0  0  0
    3.2870    2.1725   -0.1040 C   0  0  0  0  0  0  0  0  0  0  0  0
    4.3579    3.0657   -0.2110 C   0  0  0  0  0  0  0  0  0  0  0  0
    4.2126    4.3928    0.1824 C   0  0  0  0  0  0  0  0  0  0  0  0
    2.9928    4.8384    0.6843 C   0  0  0  0  0  0  0  0  0  0  0  0
    0.0148    2.1836    0.8991 H   0  0  0  0  0  0  0  0  0  0  0  0
   -2.1415   -3.0333   -0.2748 H   0  0  0  0  0  0  0  0  0  0  0  0
   -2.3373   -0.9755    1.9347 H   0  0  0  0  0  0  0  0  0  0  0  0
   -2.9619   -2.6453    1.9624 H   0  0  0  0  0  0  0  0  0  0  0  0
   -4.1024    0.5547    1.8900 H   0  0  0  0  0  0  0  0  0  0  0  0
   -6.3430    1.2700    1.1529 H   0  0  0  0  0  0  0  0  0  0  0  0
   -7.6790   -0.1678   -0.3591 H   0  0  0  0  0  0  0  0  0  0  0  0
   -6.7660   -2.3367   -1.1367 H   0  0  0  0  0  0  0  0  0  0  0  0
   -4.5320   -3.0859   -0.3929 H   0  0  0  0  0  0  0  0  0  0  0  0
   -0.4793   -4.2779   -0.6228 H   0  0  0  0  0  0  0  0  0  0  0  0
    1.5302   -5.4582   -1.3386 H   0  0  0  0  0  0  0  0  0  0  0  0
    3.6950   -4.2739   -1.5153 H   0  0  0  0  0  0  0  0  0  0  0  0
    3.8414   -1.8656   -0.9794 H   0  0  0  0  0  0  0  0  0  0  0  0
    3.4777    1.1732   -0.4320 H   0  0  0  0  0  0  0  0  0  0  0  0
    5.3074    2.7235   -0.6037 H   0  0  0  0  0  0  0  0  0  0  0  0
    5.0469    5.0773    0.0965 H   0  0  0  0  0  0  0  0  0  0  0  0
    2.8830    5.8717    0.9873 H   0  0  0  0  0  0  0  0  0  0  0  0
  2  1  1  0  0  0  0
  3  2  2  0  0  0  0
  4  3  1  0  0  0  0
  4 27  1  0  0  0  0
  5  4  1  0  0  0  0
  6  5  2  0  0  0  0
  7  6  1  0  0  0  0
  8  7  1  0  0  0  0
  8 28  1  0  0  0  0
  9  8  1  0  0  0  0
  9 29  1  0  0  0  0
  9 30  1  0  0  0  0
 10  9  1  0  0  0  0
 11 10  2  0  0  0  0
 11 31  1  0  0  0  0
 12 11  1  0  0  0  0
 12 32  1  0  0  0  0
 13 12  2  0  0  0  0
 13 33  1  0  0  0  0
 14 13  1  0  0  0  0
 14 34  1  0  0  0  0
 15 14  2  0  0  0  0
 15 10  1  0  0  0  0
 15 35  1  0  0  0  0
 16  7  2  0  0  0  0
 17 16  1  0  0  0  0
 17 36  1  0  0  0  0
 18 17  2  0  0  0  0
 18 37  1  0  0  0  0
 19 18  1  0  0  0  0
 19 38  1  0  0  0  0
 20 19  2  0  0  0  0
 20 39  1  0  0  0  0
 21 20  1  0  0  0  0
 21 16  1  0  0  0  0
 22 21  2  0  0  0  0
 22  5  1  0  0  0  0
 23  3  1  0  0  0  0
 23 40  1  0  0  0  0
 24 23  2  0  0  0  0
 24 41  1  0  0  0  0
 25 24  1  0  0  0  0
 25 42  1  0  0  0  0
 26 25  2  0  0  0  0
 26  2  1  0  0  0  0
 26 43  1  0  0  0  0
M  END
>  <MOL Chiral Flag>
0

>  <energy>
-11.583762500900377

$$$$
