>319.sdf
 OpenBabel10062212373D

 61 64  0  0  0  0  0  0  0  0999 V2000
   -7.5217    1.0778    0.3329 C   0  0  0  0  0  0  0  0  0  0  0  0
   -6.2952    1.1954    0.9503 O   0  0  0  0  0  0  0  0  0  0  0  0
   -5.1594    0.5554    0.5678 C   0  0  0  0  0  0  0  0  0  0  0  0
   -5.1798   -0.6320   -0.2045 C   0  0  0  0  0  0  0  0  0  0  0  0
   -3.9789   -1.2449   -0.5969 C   0  0  0  0  0  0  0  0  0  0  0  0
   -2.7543   -0.6496   -0.2677 C   0  0  0  0  0  0  0  0  0  0  0  0
   -2.7432    0.5203    0.5054 C   0  0  0  0  0  0  0  0  0  0  0  0
   -3.9227    1.1065    0.9416 C   0  0  0  0  0  0  0  0  0  0  0  0
   -3.8426    2.2144    1.7137 O   0  0  0  0  0  0  0  0  0  0  0  0
   -4.2369    2.2164    3.0355 C   0  0  0  0  0  0  0  0  0  0  0  0
   -1.4391   -1.2316   -0.6269 C   0  0  0  0  0  0  0  0  0  0  0  0
   -0.4425   -0.4566   -1.2753 C   0  0  0  0  0  0  0  0  0  0  0  0
    0.7915   -0.9241   -1.3587 O   0  0  0  0  0  0  0  0  0  0  0  0
    1.1864   -2.0836   -0.8599 C   0  0  0  0  0  0  0  0  0  0  0  0
    0.2447   -2.9492   -0.2727 C   0  0  0  0  0  0  0  0  0  0  0  0
    0.6715   -4.1784    0.2567 C   0  0  0  0  0  0  0  0  0  0  0  0
    2.0253   -4.5168    0.2345 C   0  0  0  0  0  0  0  0  0  0  0  0
    2.9760   -3.6353   -0.3030 C   0  0  0  0  0  0  0  0  0  0  0  0
    4.2845   -3.9695   -0.2832 O   0  0  0  0  0  0  0  0  0  0  0  0
    2.5640   -2.4041   -0.8632 C   0  0  0  0  0  0  0  0  0  0  0  0
    3.5997   -1.4175   -1.4257 C   0  0  0  0  0  0  0  0  0  0  0  0
    3.4643   -0.0261   -0.9087 N   0  3  2  0  0  0  0  0  0  0  0  0
    4.5447    0.8438   -1.4148 C   0  0  0  0  0  0  0  0  0  0  0  0
    4.2551    2.3074   -1.0267 C   0  0  0  0  0  0  0  0  0  0  0  0
    4.1257    2.4515    0.4404 N   0  3  1  0  0  0  0  0  0  0  0  0
    3.7604    3.8392    0.7763 C   0  0  0  0  0  0  0  0  0  0  0  0
    3.1092    1.5213    0.9784 C   0  0  0  0  0  0  0  0  0  0  0  0
    3.4169    0.0691    0.5671 C   0  0  0  0  0  0  0  0  0  0  0  0
   -1.0936   -2.5206   -0.1675 C   0  0  0  0  0  0  0  0  0  0  0  0
   -1.9211   -3.2152    0.3974 O   0  0  0  0  0  0  0  0  0  0  0  0
   -0.6759    0.9024   -1.9065 C   0  0  0  0  0  0  0  0  0  0  0  0
    0.0587    1.8530   -1.2238 F   0  0  0  0  0  0  0  0  0  0  0  0
   -0.2243    0.8534   -3.2124 F   0  0  0  0  0  0  0  0  0  0  0  0
   -1.9981    1.2979   -1.9515 F   0  0  0  0  0  0  0  0  0  0  0  0
   -8.2535    1.7139    0.8719 H   0  0  0  0  0  0  0  0  0  0  0  0
   -7.8877    0.0322    0.3471 H   0  0  0  0  0  0  0  0  0  0  0  0
   -7.4438    1.4492   -0.7122 H   0  0  0  0  0  0  0  0  0  0  0  0
   -6.1142   -1.0903   -0.4949 H   0  0  0  0  0  0  0  0  0  0  0  0
   -4.0051   -2.1599   -1.1758 H   0  0  0  0  0  0  0  0  0  0  0  0
   -1.7990    0.9655    0.7983 H   0  0  0  0  0  0  0  0  0  0  0  0
   -4.0735    3.2267    3.4622 H   0  0  0  0  0  0  0  0  0  0  0  0
   -3.6180    1.4916    3.6098 H   0  0  0  0  0  0  0  0  0  0  0  0
   -5.3072    1.9484    3.1418 H   0  0  0  0  0  0  0  0  0  0  0  0
   -0.0338   -4.8623    0.7121 H   0  0  0  0  0  0  0  0  0  0  0  0
    2.3413   -5.4612    0.6607 H   0  0  0  0  0  0  0  0  0  0  0  0
    4.5935   -4.8031    0.1000 H   0  0  0  0  0  0  0  0  0  0  0  0
    3.4611   -1.3911   -2.5294 H   0  0  0  0  0  0  0  0  0  0  0  0
    4.6317   -1.7876   -1.2419 H   0  0  0  0  0  0  0  0  0  0  0  0
    2.5864    0.3777   -1.2969 H   0  0  0  0  0  0  0  0  0  0  0  0
    4.6057    0.7835   -2.5245 H   0  0  0  0  0  0  0  0  0  0  0  0
    5.5278    0.5298   -0.9958 H   0  0  0  0  0  0  0  0  0  0  0  0
    3.3113    2.6245   -1.5289 H   0  0  0  0  0  0  0  0  0  0  0  0
    5.0773    2.9535   -1.4069 H   0  0  0  0  0  0  0  0  0  0  0  0
    5.0495    2.2356    0.8853 H   0  0  0  0  0  0  0  0  0  0  0  0
    2.7812    4.1177    0.3229 H   0  0  0  0  0  0  0  0  0  0  0  0
    4.5323    4.5475    0.4040 H   0  0  0  0  0  0  0  0  0  0  0  0
    3.6844    3.9684    1.8780 H   0  0  0  0  0  0  0  0  0  0  0  0
    2.0985    1.7895    0.5916 H   0  0  0  0  0  0  0  0  0  0  0  0
    3.0752    1.5857    2.0889 H   0  0  0  0  0  0  0  0  0  0  0  0
    2.6091   -0.5680    0.9858 H   0  0  0  0  0  0  0  0  0  0  0  0
    4.3823   -0.2613    1.0117 H   0  0  0  0  0  0  0  0  0  0  0  0
  1 35  1  0  0  0  0
  1 36  1  0  0  0  0
  1 37  1  0  0  0  0
  2  1  1  0  0  0  0
  3  2  1  0  0  0  0
  4  3  2  0  0  0  0
  4 38  1  0  0  0  0
  5  4  1  0  0  0  0
  5 39  1  0  0  0  0
  6  5  2  0  0  0  0
  7  6  1  0  0  0  0
  7 40  1  0  0  0  0
  8  7  2  0  0  0  0
  8  3  1  0  0  0  0
  9  8  1  0  0  0  0
 10  9  1  0  0  0  0
 10 41  1  0  0  0  0
 10 42  1  0  0  0  0
 10 43  1  0  0  0  0
 11  6  1  0  0  0  0
 12 11  2  0  0  0  0
 13 12  1  0  0  0  0
 14 13  1  0  0  0  0
 15 14  2  0  0  0  0
 16 15  1  0  0  0  0
 16 44  1  0  0  0  0
 17 16  2  0  0  0  0
 17 45  1  0  0  0  0
 18 17  1  0  0  0  0
 19 18  1  0  0  0  0
 19 46  1  0  0  0  0
 20 18  2  0  0  0  0
 20 14  1  0  0  0  0
 21 20  1  0  0  0  0
 21 47  1  0  0  0  0
 21 48  1  0  0  0  0
 22 21  1  0  0  0  0
 22 49  1  6  0  0  0
 23 22  1  0  0  0  0
 23 50  1  0  0  0  0
 23 51  1  0  0  0  0
 24 23  1  0  0  0  0
 24 52  1  0  0  0  0
 24 53  1  0  0  0  0
 25 24  1  0  0  0  0
 25 54  1  1  0  0  0
 26 25  1  0  0  0  0
 26 55  1  0  0  0  0
 26 56  1  0  0  0  0
 26 57  1  0  0  0  0
 27 25  1  0  0  0  0
 27 58  1  0  0  0  0
 27 59  1  0  0  0  0
 28 27  1  0  0  0  0
 28 22  1  0  0  0  0
 28 60  1  0  0  0  0
 28 61  1  0  0  0  0
 29 15  1  0  0  0  0
 29 11  1  0  0  0  0
 30 29  2  0  0  0  0
 31 12  1  0  0  0  0
 32 31  1  0  0  0  0
 33 31  1  0  0  0  0
 34 31  1  0  0  0  0
M  CHG  2  22   1  25   1
M  END
>  <MOL Chiral Flag>
0

>  <energy>
160.45230278036291

$$$$
