>323_2.sdf
 OpenBabel10102214283D

 72 76  0  0  0  0  0  0  0  0999 V2000
    3.3221    5.5461    0.8488 C   0  0  0  0  0  0  0  0  0  0  0  0
    2.5924    4.3352    0.4327 N   0  3  1  0  0  0  0  0  0  0  0  0
    2.9265    4.0088   -0.9739 C   0  0  0  0  0  0  0  0  0  0  0  0
    2.2274    2.7210   -1.4319 C   0  0  0  0  0  0  0  0  0  0  0  0
    2.6054    1.5612   -0.5048 C   0  0  0  0  0  0  0  0  0  0  0  0
    2.1856    1.9219    0.9328 C   0  0  1  0  0  0  0  0  0  0  0  0
    2.4910    0.8155    1.9594 C   0  0  0  0  0  0  0  0  0  0  0  0
    2.2091   -0.4494    1.4976 O   0  0  0  0  0  0  0  0  0  0  0  0
    1.0774   -1.1498    1.2251 C   0  0  0  0  0  0  0  0  0  0  0  0
   -0.2516   -0.7582    1.5605 C   0  0  0  0  0  0  0  0  0  0  0  0
   -0.4711    0.4345    2.1704 O   0  0  0  0  0  0  0  0  0  0  0  0
   -1.3812    1.3897    1.7280 C   0  0  0  0  0  0  0  0  0  0  0  0
   -2.8645    1.0670    1.9408 C   0  0  0  0  0  0  0  0  0  0  0  0
   -3.2846   -0.1340    1.2262 N   0  0  0  0  0  0  0  0  0  0  0  0
   -2.7402   -1.3983    1.6977 C   0  0  0  0  0  0  0  0  0  0  0  0
   -1.3209   -1.6465    1.2518 C   0  0  0  0  0  0  0  0  0  0  0  0
   -1.0553   -2.8518    0.5681 C   0  0  0  0  0  0  0  0  0  0  0  0
    0.2496   -3.2045    0.2141 C   0  0  0  0  0  0  0  0  0  0  0  0
    1.2922   -2.3536    0.5663 C   0  0  0  0  0  0  0  0  0  0  0  0
    0.5591   -4.4633   -0.5123 C   0  0  0  0  0  0  0  0  0  0  0  0
   -0.3316   -5.4416   -0.9843 C   0  0  0  0  0  0  0  0  0  0  0  0
    0.3195   -6.5148   -1.6617 C   0  0  0  0  0  0  0  0  0  0  0  0
    1.7097   -6.3725   -1.7148 C   0  0  0  0  0  0  0  0  0  0  0  0
    2.6972   -7.2935   -2.3449 C   0  0  0  0  0  0  0  0  0  0  0  0
    2.0860   -4.9653   -0.9455 S   0  0  0  0  0  0  0  0  0  0  0  0
   -4.2436   -0.1237    0.2265 C   0  0  0  0  0  0  0  0  0  0  0  0
   -4.5450   -1.1699   -0.3129 O   0  0  0  0  0  0  0  0  0  0  0  0
   -4.9532    1.1555   -0.2009 C   0  0  0  0  0  0  0  0  0  0  0  0
   -5.9723    1.1872   -1.3472 C   0  0  0  0  0  0  0  0  0  0  0  0
   -6.3974    0.2772   -2.3301 C   0  0  0  0  0  0  0  0  0  0  0  0
   -5.9758   -1.1270   -2.6163 C   0  0  0  0  0  0  0  0  0  0  0  0
   -7.2972    0.8749   -3.0806 O   0  0  0  0  0  0  0  0  0  0  0  0
   -7.5132    2.0933   -2.6860 N   0  0  0  0  0  0  0  0  0  0  0  0
   -6.7187    2.3245   -1.6277 C   0  0  0  0  0  0  0  0  0  0  0  0
   -6.6902    3.6259   -0.8927 C   0  0  0  0  0  0  0  0  0  0  0  0
    2.9231    3.2171    1.3424 C   0  0  0  0  0  0  0  0  0  0  0  0
    2.9932    6.4215    0.2483 H   0  0  0  0  0  0  0  0  0  0  0  0
    4.4211    5.4181    0.7186 H   0  0  0  0  0  0  0  0  0  0  0  0
    3.1245    5.7780    1.9185 H   0  0  0  0  0  0  0  0  0  0  0  0
    1.5657    4.5296    0.5096 H   0  0  0  0  0  0  0  0  0  0  0  0
    4.0263    3.8754   -1.0916 H   0  0  0  0  0  0  0  0  0  0  0  0
    2.6073    4.8398   -1.6429 H   0  0  0  0  0  0  0  0  0  0  0  0
    2.5183    2.4852   -2.4781 H   0  0  0  0  0  0  0  0  0  0  0  0
    1.1249    2.8693   -1.4042 H   0  0  0  0  0  0  0  0  0  0  0  0
    3.7012    1.3722   -0.5582 H   0  0  0  0  0  0  0  0  0  0  0  0
    2.0769    0.6459   -0.8479 H   0  0  0  0  0  0  0  0  0  0  0  0
    1.0945    2.0947    0.9296 H   0  0  0  0  0  0  0  0  0  0  0  0
    2.0126    1.0117    2.9422 H   0  0  0  0  0  0  0  0  0  0  0  0
    3.5905    0.8133    2.1258 H   0  0  0  0  0  0  0  0  0  0  0  0
   -1.2012    1.6070    0.6525 H   0  0  0  0  0  0  0  0  0  0  0  0
   -1.1766    2.3240    2.2934 H   0  0  0  0  0  0  0  0  0  0  0  0
   -3.4277    1.9661    1.6274 H   0  0  0  0  0  0  0  0  0  0  0  0
   -3.0710    0.9412    3.0262 H   0  0  0  0  0  0  0  0  0  0  0  0
   -3.3837   -2.2507    1.3898 H   0  0  0  0  0  0  0  0  0  0  0  0
   -2.7915   -1.4210    2.8083 H   0  0  0  0  0  0  0  0  0  0  0  0
   -1.8707   -3.5220    0.3320 H   0  0  0  0  0  0  0  0  0  0  0  0
    2.3125   -2.6159    0.3198 H   0  0  0  0  0  0  0  0  0  0  0  0
   -1.4045   -5.3980   -0.8621 H   0  0  0  0  0  0  0  0  0  0  0  0
   -0.2109   -7.3524   -2.0941 H   0  0  0  0  0  0  0  0  0  0  0  0
    2.1852   -8.1636   -2.8040 H   0  0  0  0  0  0  0  0  0  0  0  0
    3.4101   -7.6526   -1.5733 H   0  0  0  0  0  0  0  0  0  0  0  0
    3.2600   -6.7452   -3.1295 H   0  0  0  0  0  0  0  0  0  0  0  0
   -4.1817    1.9049   -0.4765 H   0  0  0  0  0  0  0  0  0  0  0  0
   -5.4924    1.5057    0.7052 H   0  0  0  0  0  0  0  0  0  0  0  0
   -6.2653   -1.7986   -1.7841 H   0  0  0  0  0  0  0  0  0  0  0  0
   -4.8849   -1.1649   -2.8178 H   0  0  0  0  0  0  0  0  0  0  0  0
   -6.5038   -1.4944   -3.5218 H   0  0  0  0  0  0  0  0  0  0  0  0
   -7.4045    4.3406   -1.3540 H   0  0  0  0  0  0  0  0  0  0  0  0
   -5.6700    4.0592   -0.9323 H   0  0  0  0  0  0  0  0  0  0  0  0
   -6.9848    3.4637    0.1651 H   0  0  0  0  0  0  0  0  0  0  0  0
    4.0248    3.0304    1.3290 H   0  0  0  0  0  0  0  0  0  0  0  0
    2.6375    3.4812    2.3851 H   0  0  0  0  0  0  0  0  0  0  0  0
  1 37  1  0  0  0  0
  1 38  1  0  0  0  0
  1 39  1  0  0  0  0
  2  1  1  0  0  0  0
  2 40  1  1  0  0  0
  3  2  1  0  0  0  0
  3 41  1  0  0  0  0
  3 42  1  0  0  0  0
  4  3  1  0  0  0  0
  4 43  1  0  0  0  0
  4 44  1  0  0  0  0
  5  4  1  0  0  0  0
  5 45  1  0  0  0  0
  5 46  1  0  0  0  0
  6  5  1  0  0  0  0
  6 47  1  1  0  0  0
  7  6  1  0  0  0  0
  7 48  1  0  0  0  0
  7 49  1  0  0  0  0
  8  7  1  0  0  0  0
  9  8  1  0  0  0  0
 10  9  2  0  0  0  0
 11 10  1  0  0  0  0
 12 11  1  0  0  0  0
 12 50  1  0  0  0  0
 12 51  1  0  0  0  0
 13 12  1  0  0  0  0
 13 52  1  0  0  0  0
 13 53  1  0  0  0  0
 14 13  1  0  0  0  0
 15 14  1  0  0  0  0
 15 54  1  0  0  0  0
 15 55  1  0  0  0  0
 16 15  1  0  0  0  0
 16 10  1  0  0  0  0
 17 16  2  0  0  0  0
 17 56  1  0  0  0  0
 18 17  1  0  0  0  0
 19 18  2  0  0  0  0
 19  9  1  0  0  0  0
 19 57  1  0  0  0  0
 20 18  1  0  0  0  0
 21 20  2  0  0  0  0
 21 58  1  0  0  0  0
 22 21  1  0  0  0  0
 22 59  1  0  0  0  0
 23 22  2  0  0  0  0
 24 23  1  0  0  0  0
 24 60  1  0  0  0  0
 24 61  1  0  0  0  0
 24 62  1  0  0  0  0
 25 23  1  0  0  0  0
 25 20  1  0  0  0  0
 26 14  1  0  0  0  0
 27 26  2  0  0  0  0
 28 26  1  0  0  0  0
 28 63  1  0  0  0  0
 28 64  1  0  0  0  0
 29 28  1  0  0  0  0
 30 29  2  0  0  0  0
 31 30  1  0  0  0  0
 31 65  1  0  0  0  0
 31 66  1  0  0  0  0
 31 67  1  0  0  0  0
 32 30  1  0  0  0  0
 33 32  1  0  0  0  0
 34 33  2  0  0  0  0
 34 29  1  0  0  0  0
 35 34  1  0  0  0  0
 35 68  1  0  0  0  0
 35 69  1  0  0  0  0
 35 70  1  0  0  0  0
 36  6  1  0  0  0  0
 36  2  1  0  0  0  0
 36 71  1  0  0  0  0
 36 72  1  0  0  0  0
M  CHG  1   2   1
M  END
>  <MOL Chiral Flag>
0

>  <energy>
92.366569783021347

$$$$
