>326.sdf
 OpenBabel10062212413D

 72 77  0  0  0  0  0  0  0  0999 V2000
   -2.0145    5.2215    2.6535 C   0  0  0  0  0  0  0  0  0  0  0  0
   -1.7897    4.3728    1.5863 O   0  0  0  0  0  0  0  0  0  0  0  0
   -1.4593    3.0477    1.6273 C   0  0  0  0  0  0  0  0  0  0  0  0
   -1.0672    2.4567    0.4176 C   0  0  0  0  0  0  0  0  0  0  0  0
   -0.6114    1.1281    0.3620 C   0  0  0  0  0  0  0  0  0  0  0  0
   -0.6172    0.3696    1.5417 C   0  0  0  0  0  0  0  0  0  0  0  0
   -1.0440    0.9163    2.7686 C   0  0  0  0  0  0  0  0  0  0  0  0
   -1.0459    0.1606    3.9005 O   0  0  0  0  0  0  0  0  0  0  0  0
   -0.7000   -1.1727    3.9861 C   0  0  0  0  0  0  0  0  0  0  0  0
   -1.4506    2.2785    2.8255 C   0  0  0  0  0  0  0  0  0  0  0  0
   -1.8174    2.8819    3.9941 O   0  0  0  0  0  0  0  0  0  0  0  0
   -1.8040    2.3585    5.2712 C   0  0  0  0  0  0  0  0  0  0  0  0
    0.0168    0.5337   -0.9124 C   0  0  1  0  0  0  0  0  0  0  0  0
   -0.8972    0.0212   -1.9979 N   0  3  2  0  0  0  0  0  0  0  0  0
   -0.1737   -0.0669   -3.3042 C   0  0  0  0  0  0  0  0  0  0  0  0
   -0.8806   -0.9645   -4.3168 C   0  0  0  0  0  0  0  0  0  0  0  0
   -2.2979   -0.5500   -4.3759 C   0  0  0  0  0  0  0  0  0  0  0  0
   -2.9291    0.2033   -3.4038 C   0  0  0  0  0  0  0  0  0  0  0  0
   -2.2247    0.6881   -2.1448 C   0  0  0  0  0  0  0  0  0  0  0  0
   -4.2155    0.4344   -3.7637 N   0  0  0  0  0  0  0  0  0  0  0  0
   -4.3801   -0.1706   -4.9640 C   0  0  0  0  0  0  0  0  0  0  0  0
   -3.2181   -0.7788   -5.3621 C   0  0  0  0  0  0  0  0  0  0  0  0
   -3.1053   -1.4450   -6.5799 C   0  0  0  0  0  0  0  0  0  0  0  0
   -4.2359   -1.4860   -7.4126 C   0  0  0  0  0  0  0  0  0  0  0  0
   -5.4440   -0.8729   -7.0037 C   0  0  0  0  0  0  0  0  0  0  0  0
   -5.5238   -0.2066   -5.7614 C   0  0  0  0  0  0  0  0  0  0  0  0
    1.1438    1.4374   -1.4292 C   0  0  0  0  0  0  0  0  0  0  0  0
    0.9108    2.7001   -1.8342 N   0  0  0  0  0  0  0  0  0  0  0  0
    2.0660    3.1659   -2.2763 N   0  0  0  0  0  0  0  0  0  0  0  0
    2.9898    2.2278   -2.1735 N   0  0  0  0  0  0  0  0  0  0  0  0
    2.4596    1.1297   -1.6516 N   0  0  0  0  0  0  0  0  0  0  0  0
    3.3050   -0.0867   -1.5070 C   0  0  0  0  0  0  0  0  0  0  0  0
    2.6331   -1.3609   -0.9402 C   0  0  0  0  0  0  0  0  0  0  0  0
    3.6094   -2.5400   -0.9048 C   0  0  0  0  0  0  0  0  0  0  0  0
    4.8256   -2.1913   -0.0455 C   0  0  0  0  0  0  0  0  0  0  0  0
    5.5177   -0.9441   -0.6028 C   0  0  0  0  0  0  0  0  0  0  0  0
    4.5441    0.2444   -0.6460 C   0  0  0  0  0  0  0  0  0  0  0  0
   -2.1940    6.2460    2.2681 H   0  0  0  0  0  0  0  0  0  0  0  0
   -1.1173    5.2602    3.3103 H   0  0  0  0  0  0  0  0  0  0  0  0
   -2.9133    4.9118    3.2252 H   0  0  0  0  0  0  0  0  0  0  0  0
   -1.0639    3.0735   -0.4681 H   0  0  0  0  0  0  0  0  0  0  0  0
   -0.2660   -0.6517    1.5040 H   0  0  0  0  0  0  0  0  0  0  0  0
   -0.8148   -1.5080    5.0369 H   0  0  0  0  0  0  0  0  0  0  0  0
    0.3592   -1.3169    3.6847 H   0  0  0  0  0  0  0  0  0  0  0  0
   -1.3715   -1.7848    3.3464 H   0  0  0  0  0  0  0  0  0  0  0  0
   -2.1307    3.1442    5.9830 H   0  0  0  0  0  0  0  0  0  0  0  0
   -0.7735    2.0524    5.5531 H   0  0  0  0  0  0  0  0  0  0  0  0
   -2.5128    1.5084    5.3530 H   0  0  0  0  0  0  0  0  0  0  0  0
    0.4900   -0.3652   -0.5519 H   0  0  0  0  0  0  0  0  0  0  0  0
   -1.1306   -0.9683   -1.7301 H   0  0  0  0  0  0  0  0  0  0  0  0
    0.8516   -0.4717   -3.1962 H   0  0  0  0  0  0  0  0  0  0  0  0
   -0.0942    0.9567   -3.7398 H   0  0  0  0  0  0  0  0  0  0  0  0
   -0.8305   -2.0374   -4.0330 H   0  0  0  0  0  0  0  0  0  0  0  0
   -0.3816   -0.8211   -5.2995 H   0  0  0  0  0  0  0  0  0  0  0  0
   -2.8515    0.4259   -1.2621 H   0  0  0  0  0  0  0  0  0  0  0  0
   -2.1274    1.7905   -2.2029 H   0  0  0  0  0  0  0  0  0  0  0  0
   -4.9315    0.9720   -3.2271 H   0  0  0  0  0  0  0  0  0  0  0  0
   -2.1725   -1.9040   -6.8844 H   0  0  0  0  0  0  0  0  0  0  0  0
   -4.1778   -1.9851   -8.3718 H   0  0  0  0  0  0  0  0  0  0  0  0
   -6.3081   -0.9103   -7.6536 H   0  0  0  0  0  0  0  0  0  0  0  0
   -6.4415    0.2702   -5.4459 H   0  0  0  0  0  0  0  0  0  0  0  0
    3.6616   -0.3411   -2.5310 H   0  0  0  0  0  0  0  0  0  0  0  0
    1.7886   -1.6816   -1.5817 H   0  0  0  0  0  0  0  0  0  0  0  0
    2.3011   -1.1782    0.1059 H   0  0  0  0  0  0  0  0  0  0  0  0
    3.9341   -2.7850   -1.9403 H   0  0  0  0  0  0  0  0  0  0  0  0
    3.0973   -3.4319   -0.4823 H   0  0  0  0  0  0  0  0  0  0  0  0
    5.5338   -3.0468   -0.0403 H   0  0  0  0  0  0  0  0  0  0  0  0
    4.4993   -2.0001    1.0008 H   0  0  0  0  0  0  0  0  0  0  0  0
    5.8839   -1.1574   -1.6319 H   0  0  0  0  0  0  0  0  0  0  0  0
    6.3923   -0.6884    0.0313 H   0  0  0  0  0  0  0  0  0  0  0  0
    5.0844    1.1161   -1.0738 H   0  0  0  0  0  0  0  0  0  0  0  0
    4.2200    0.5073    0.3850 H   0  0  0  0  0  0  0  0  0  0  0  0
  1 38  1  0  0  0  0
  1 39  1  0  0  0  0
  1 40  1  0  0  0  0
  2  1  1  0  0  0  0
  3  2  1  0  0  0  0
  4  3  2  0  0  0  0
  4 41  1  0  0  0  0
  5  4  1  0  0  0  0
  6  5  2  0  0  0  0
  6 42  1  0  0  0  0
  7  6  1  0  0  0  0
  8  7  1  0  0  0  0
  9  8  1  0  0  0  0
  9 43  1  0  0  0  0
  9 44  1  0  0  0  0
  9 45  1  0  0  0  0
 10  7  2  0  0  0  0
 10  3  1  0  0  0  0
 11 10  1  0  0  0  0
 12 11  1  0  0  0  0
 12 46  1  0  0  0  0
 12 47  1  0  0  0  0
 12 48  1  0  0  0  0
 13  5  1  0  0  0  0
 13 49  1  1  0  0  0
 14 13  1  0  0  0  0
 14 50  1  1  0  0  0
 15 14  1  0  0  0  0
 15 51  1  0  0  0  0
 15 52  1  0  0  0  0
 16 15  1  0  0  0  0
 16 53  1  0  0  0  0
 16 54  1  0  0  0  0
 17 16  1  0  0  0  0
 18 17  2  0  0  0  0
 19 18  1  0  0  0  0
 19 14  1  0  0  0  0
 19 55  1  0  0  0  0
 19 56  1  0  0  0  0
 20 18  1  0  0  0  0
 20 57  1  0  0  0  0
 21 20  1  0  0  0  0
 22 21  2  0  0  0  0
 22 17  1  0  0  0  0
 23 22  1  0  0  0  0
 23 58  1  0  0  0  0
 24 23  2  0  0  0  0
 24 59  1  0  0  0  0
 25 24  1  0  0  0  0
 25 60  1  0  0  0  0
 26 25  2  0  0  0  0
 26 21  1  0  0  0  0
 26 61  1  0  0  0  0
 27 13  1  0  0  0  0
 28 27  2  0  0  0  0
 29 28  1  0  0  0  0
 30 29  2  0  0  0  0
 31 30  1  0  0  0  0
 31 27  1  0  0  0  0
 32 31  1  0  0  0  0
 32 62  1  0  0  0  0
 33 32  1  0  0  0  0
 33 63  1  0  0  0  0
 33 64  1  0  0  0  0
 34 33  1  0  0  0  0
 34 65  1  0  0  0  0
 34 66  1  0  0  0  0
 35 34  1  0  0  0  0
 35 67  1  0  0  0  0
 35 68  1  0  0  0  0
 36 35  1  0  0  0  0
 36 69  1  0  0  0  0
 36 70  1  0  0  0  0
 37 36  1  0  0  0  0
 37 32  1  0  0  0  0
 37 71  1  0  0  0  0
 37 72  1  0  0  0  0
M  CHG  1  14   1
M  END
>  <MOL Chiral Flag>
0

>  <energy>
111.31219939903362

$$$$
