>333.sdf
 OpenBabel10062212453D

 40 42  0  0  0  0  0  0  0  0999 V2000
   -4.8334    0.4779    1.1748 C   0  0  0  0  0  0  0  0  0  0  0  0
   -4.2164    1.3752    0.0904 C   0  0  0  0  0  0  0  0  0  0  0  0
   -2.9943    2.1114    0.6527 C   0  0  0  0  0  0  0  0  0  0  0  0
   -3.9161    0.5773   -1.2063 C   0  0  0  0  0  0  0  0  0  0  0  0
   -3.2352   -0.6097   -0.9738 O   0  0  0  0  0  0  0  0  0  0  0  0
   -1.9044   -0.7617   -0.7564 C   0  0  0  0  0  0  0  0  0  0  0  0
   -1.4692   -1.8947   -0.0612 C   0  0  0  0  0  0  0  0  0  0  0  0
   -0.1136   -2.0724    0.2335 C   0  0  0  0  0  0  0  0  0  0  0  0
    0.8332   -1.0976   -0.1694 C   0  0  0  0  0  0  0  0  0  0  0  0
    0.3994    0.0127   -0.9140 C   0  0  0  0  0  0  0  0  0  0  0  0
   -0.9573    0.1767   -1.2088 C   0  0  0  0  0  0  0  0  0  0  0  0
    2.1828   -1.2838    0.2062 C   0  0  0  0  0  0  0  0  0  0  0  0
    2.5267   -2.4293    0.9251 C   0  0  0  0  0  0  0  0  0  0  0  0
    1.5396   -3.3600    1.2577 C   0  0  0  0  0  0  0  0  0  0  0  0
    1.8362   -4.3620    1.8783 O   0  0  0  0  0  0  0  0  0  0  0  0
    0.2726   -3.1472    0.9133 O   0  0  0  0  0  0  0  0  0  0  0  0
    3.2461   -0.2935   -0.0697 C   0  0  0  0  0  0  0  0  0  0  0  0
    4.0778   -0.4302   -1.1900 C   0  0  0  0  0  0  0  0  0  0  0  0
    5.1214    0.4788   -1.4035 C   0  0  0  0  0  0  0  0  0  0  0  0
    5.3431    1.5204   -0.4969 C   0  0  0  0  0  0  0  0  0  0  0  0
    4.5197    1.6587    0.6235 C   0  0  0  0  0  0  0  0  0  0  0  0
    3.4727    0.7558    0.8384 C   0  0  0  0  0  0  0  0  0  0  0  0
   -5.7284   -0.0505    0.7855 H   0  0  0  0  0  0  0  0  0  0  0  0
   -4.0956   -0.2780    1.5236 H   0  0  0  0  0  0  0  0  0  0  0  0
   -5.1412    1.0893    2.0504 H   0  0  0  0  0  0  0  0  0  0  0  0
   -4.9578    2.1582   -0.1836 H   0  0  0  0  0  0  0  0  0  0  0  0
   -3.3038    2.7399    1.5174 H   0  0  0  0  0  0  0  0  0  0  0  0
   -2.2116    1.4072    0.9997 H   0  0  0  0  0  0  0  0  0  0  0  0
   -2.5682    2.7878   -0.1180 H   0  0  0  0  0  0  0  0  0  0  0  0
   -3.4245    1.2085   -1.9748 H   0  0  0  0  0  0  0  0  0  0  0  0
   -4.8977    0.2953   -1.6402 H   0  0  0  0  0  0  0  0  0  0  0  0
   -2.1925   -2.6299    0.2765 H   0  0  0  0  0  0  0  0  0  0  0  0
    1.1010    0.7565   -1.2663 H   0  0  0  0  0  0  0  0  0  0  0  0
   -1.2596    1.0385   -1.7827 H   0  0  0  0  0  0  0  0  0  0  0  0
    3.5536   -2.5922    1.2330 H   0  0  0  0  0  0  0  0  0  0  0  0
    3.9226   -1.2421   -1.8884 H   0  0  0  0  0  0  0  0  0  0  0  0
    5.7653    0.3703   -2.2663 H   0  0  0  0  0  0  0  0  0  0  0  0
    6.1570    2.2162   -0.6588 H   0  0  0  0  0  0  0  0  0  0  0  0
    4.6995    2.4596    1.3302 H   0  0  0  0  0  0  0  0  0  0  0  0
    2.8505    0.8623    1.7190 H   0  0  0  0  0  0  0  0  0  0  0  0
  1 23  1  0  0  0  0
  1 24  1  0  0  0  0
  1 25  1  0  0  0  0
  2  1  1  0  0  0  0
  2 26  1  0  0  0  0
  3  2  1  0  0  0  0
  3 27  1  0  0  0  0
  3 28  1  0  0  0  0
  3 29  1  0  0  0  0
  4  2  1  0  0  0  0
  4 30  1  0  0  0  0
  4 31  1  0  0  0  0
  5  4  1  0  0  0  0
  6  5  1  0  0  0  0
  7  6  2  0  0  0  0
  7 32  1  0  0  0  0
  8  7  1  0  0  0  0
  9  8  2  0  0  0  0
 10  9  1  0  0  0  0
 10 33  1  0  0  0  0
 11 10  2  0  0  0  0
 11  6  1  0  0  0  0
 11 34  1  0  0  0  0
 12  9  1  0  0  0  0
 13 12  2  0  0  0  0
 13 35  1  0  0  0  0
 14 13  1  0  0  0  0
 15 14  2  0  0  0  0
 16 14  1  0  0  0  0
 16  8  1  0  0  0  0
 17 12  1  0  0  0  0
 18 17  2  0  0  0  0
 18 36  1  0  0  0  0
 19 18  1  0  0  0  0
 19 37  1  0  0  0  0
 20 19  2  0  0  0  0
 20 38  1  0  0  0  0
 21 20  1  0  0  0  0
 21 39  1  0  0  0  0
 22 21  2  0  0  0  0
 22 17  1  0  0  0  0
 22 40  1  0  0  0  0
M  END
>  <MOL Chiral Flag>
0

>  <energy>
60.481323034221361

$$$$
