>339.sdf
 OpenBabel10062212483D

 52 56  0  0  0  0  0  0  0  0999 V2000
    3.0789    3.5185   -0.2248 C   0  0  0  0  0  0  0  0  0  0  0  0
    2.4012    2.5403    0.4708 O   0  0  0  0  0  0  0  0  0  0  0  0
    2.9565    1.3508    0.8175 C   0  0  0  0  0  0  0  0  0  0  0  0
    4.1205    1.1005    0.5325 O   0  0  0  0  0  0  0  0  0  0  0  0
    2.1198    0.3373    1.5605 C   0  0  2  0  0  0  0  0  0  0  0  0
    2.8068   -0.9748    1.9168 C   0  0  0  0  0  0  0  0  0  0  0  0
    1.6025   -1.8236    2.3374 C   0  0  2  0  0  0  0  0  0  0  0  0
    1.7231   -3.3234    2.0664 C   0  0  0  0  0  0  0  0  0  0  0  0
    0.2647   -3.6816    1.8433 C   0  0  0  0  0  0  0  0  0  0  0  0
   -0.1633   -2.5323    0.9359 C   0  0  0  0  0  0  0  0  0  0  0  0
    0.4383   -1.3527    1.5748 N   0  0  2  0  0  0  0  0  0  0  0  0
    0.8618   -0.1619    0.8111 C   0  0  1  0  0  0  0  0  0  0  0  0
   -0.2425    0.8828    0.7735 C   0  0  0  0  0  0  0  0  0  0  0  0
   -0.7064    1.4078    1.7734 O   0  0  0  0  0  0  0  0  0  0  0  0
   -0.6301    1.2057   -0.4797 N   0  0  0  0  0  0  0  0  0  0  0  0
   -1.6473    2.1915   -0.8315 C   0  0  0  0  0  0  0  0  0  0  0  0
   -3.0510    1.6348   -0.6887 C   0  0  0  0  0  0  0  0  0  0  0  0
   -3.8398    1.4366   -1.8387 C   0  0  0  0  0  0  0  0  0  0  0  0
   -5.1358    0.9235   -1.7299 C   0  0  0  0  0  0  0  0  0  0  0  0
   -5.6616    0.6084   -0.4759 C   0  0  0  0  0  0  0  0  0  0  0  0
   -4.8934    0.8080    0.6722 C   0  0  0  0  0  0  0  0  0  0  0  0
   -3.5956    1.3186    0.5703 C   0  0  0  0  0  0  0  0  0  0  0  0
    0.1437    0.4629   -1.3832 C   0  0  0  0  0  0  0  0  0  0  0  0
    1.0239   -0.3609   -0.7084 C   0  0  0  0  0  0  0  0  0  0  0  0
    1.8871   -1.2055   -1.4262 C   0  0  0  0  0  0  0  0  0  0  0  0
    1.8409   -1.1959   -2.8285 C   0  0  0  0  0  0  0  0  0  0  0  0
    0.9415   -0.3544   -3.5044 C   0  0  0  0  0  0  0  0  0  0  0  0
    0.0804    0.4829   -2.7829 C   0  0  0  0  0  0  0  0  0  0  0  0
    3.9663    3.8555    0.3526 H   0  0  0  0  0  0  0  0  0  0  0  0
    2.4047    4.3855   -0.3816 H   0  0  0  0  0  0  0  0  0  0  0  0
    3.3988    3.1314   -1.2160 H   0  0  0  0  0  0  0  0  0  0  0  0
    1.7953    0.7884    2.5273 H   0  0  0  0  0  0  0  0  0  0  0  0
    3.2589   -1.3874    1.0000 H   0  0  0  0  0  0  0  0  0  0  0  0
    3.6097   -0.9124    2.6818 H   0  0  0  0  0  0  0  0  0  0  0  0
    1.3445   -1.6336    3.4039 H   0  0  0  0  0  0  0  0  0  0  0  0
    2.2443   -3.4917    1.0962 H   0  0  0  0  0  0  0  0  0  0  0  0
    2.2541   -3.8941    2.8569 H   0  0  0  0  0  0  0  0  0  0  0  0
   -0.2797   -3.6037    2.8122 H   0  0  0  0  0  0  0  0  0  0  0  0
    0.0973   -4.6906    1.4104 H   0  0  0  0  0  0  0  0  0  0  0  0
    0.2711   -2.7207   -0.0659 H   0  0  0  0  0  0  0  0  0  0  0  0
   -1.2654   -2.4411    0.8399 H   0  0  0  0  0  0  0  0  0  0  0  0
   -1.5019    2.4978   -1.8855 H   0  0  0  0  0  0  0  0  0  0  0  0
   -1.5099    3.1244   -0.2439 H   0  0  0  0  0  0  0  0  0  0  0  0
   -3.4493    1.6735   -2.8206 H   0  0  0  0  0  0  0  0  0  0  0  0
   -5.7330    0.7704   -2.6194 H   0  0  0  0  0  0  0  0  0  0  0  0
   -6.6656    0.2127   -0.3933 H   0  0  0  0  0  0  0  0  0  0  0  0
   -5.3048    0.5694    1.6446 H   0  0  0  0  0  0  0  0  0  0  0  0
   -3.0348    1.4734    1.4748 H   0  0  0  0  0  0  0  0  0  0  0  0
    2.5758   -1.8688   -0.9338 H   0  0  0  0  0  0  0  0  0  0  0  0
    2.4991   -1.8437   -3.3929 H   0  0  0  0  0  0  0  0  0  0  0  0
    0.9106   -0.3565   -4.5863 H   0  0  0  0  0  0  0  0  0  0  0  0
   -0.6115    1.1181   -3.3153 H   0  0  0  0  0  0  0  0  0  0  0  0
  1 29  1  0  0  0  0
  1 30  1  0  0  0  0
  1 31  1  0  0  0  0
  2  1  1  0  0  0  0
  3  2  1  0  0  0  0
  4  3  2  0  0  0  0
  5  3  1  0  0  0  0
  5 32  1  1  0  0  0
  6  5  1  0  0  0  0
  6 33  1  0  0  0  0
  6 34  1  0  0  0  0
  7  6  1  0  0  0  0
  7 35  1  1  0  0  0
  8  7  1  0  0  0  0
  8 36  1  0  0  0  0
  8 37  1  0  0  0  0
  9  8  1  0  0  0  0
  9 38  1  0  0  0  0
  9 39  1  0  0  0  0
 10  9  1  0  0  0  0
 10 40  1  0  0  0  0
 10 41  1  0  0  0  0
 11 10  1  6  0  0  0
 11  7  1  0  0  0  0
 12 11  1  0  0  0  0
 12  5  1  0  0  0  0
 12 13  1  1  0  0  0
 14 13  2  0  0  0  0
 15 13  1  0  0  0  0
 16 15  1  0  0  0  0
 16 42  1  0  0  0  0
 16 43  1  0  0  0  0
 17 16  1  0  0  0  0
 18 17  2  0  0  0  0
 18 44  1  0  0  0  0
 19 18  1  0  0  0  0
 19 45  1  0  0  0  0
 20 19  2  0  0  0  0
 20 46  1  0  0  0  0
 21 20  1  0  0  0  0
 21 47  1  0  0  0  0
 22 21  2  0  0  0  0
 22 17  1  0  0  0  0
 22 48  1  0  0  0  0
 23 15  1  0  0  0  0
 24 23  2  0  0  0  0
 24 12  1  0  0  0  0
 25 24  1  0  0  0  0
 25 49  1  0  0  0  0
 26 25  2  0  0  0  0
 26 50  1  0  0  0  0
 27 26  1  0  0  0  0
 27 51  1  0  0  0  0
 28 27  2  0  0  0  0
 28 23  1  0  0  0  0
 28 52  1  0  0  0  0
M  END
>  <MOL Chiral Flag>
0

>  <energy>
71.126513234267023

$$$$
