>340.sdf
 OpenBabel10062212493D

 42 42  0  0  0  0  0  0  0  0999 V2000
   -0.5374   -2.2958   -1.0060 H   0  0  0  0  0  0  0  0  0  0  0  0
   -0.1050   -1.3535   -1.4163 C   0  0  1  0  0  0  0  0  0  0  0  0
   -0.2077   -0.3175   -0.2858 C   0  0  0  0  0  0  0  0  0  0  0  0
   -1.6476   -0.2947    0.2615 C   0  0  0  0  0  0  0  0  0  0  0  0
   -2.7051   -0.2230   -0.8183 C   0  0  0  0  0  0  0  0  0  0  0  0
   -4.1175    0.1130   -0.4168 C   0  0  0  0  0  0  0  0  0  0  0  0
   -2.4065   -0.4620   -2.1155 C   0  0  0  0  0  0  0  0  0  0  0  0
   -1.0284   -0.8813   -2.5748 C   0  0  0  0  0  0  0  0  0  0  0  0
    1.3651   -1.7113   -1.8921 C   0  0  1  0  0  0  0  0  0  0  0  0
    2.1809   -2.2677   -0.7028 C   0  0  0  0  0  0  0  0  0  0  0  0
    1.2867   -2.7194   -2.8764 O   0  0  0  0  0  0  0  0  0  0  0  0
    2.0847   -0.4866   -2.5472 C   0  0  0  0  0  0  0  0  0  0  0  0
    3.5248   -0.7053   -3.0778 C   0  0  0  0  0  0  0  0  0  0  0  0
    4.5973   -0.6231   -2.0114 C   0  0  0  0  0  0  0  0  0  0  0  0
    5.9212   -0.6777   -2.2967 C   0  0  0  0  0  0  0  0  0  0  0  0
    6.9375   -0.5302   -1.1930 C   0  0  0  0  0  0  0  0  0  0  0  0
    6.4253   -0.8621   -3.7081 C   0  0  0  0  0  0  0  0  0  0  0  0
    0.4533   -0.5449    0.5731 H   0  0  0  0  0  0  0  0  0  0  0  0
    0.0660    0.6837   -0.6842 H   0  0  0  0  0  0  0  0  0  0  0  0
   -1.8564   -1.2050    0.8654 H   0  0  0  0  0  0  0  0  0  0  0  0
   -1.7273    0.5873    0.9335 H   0  0  0  0  0  0  0  0  0  0  0  0
   -4.1399    1.1081    0.0750 H   0  0  0  0  0  0  0  0  0  0  0  0
   -4.4892   -0.6500    0.2994 H   0  0  0  0  0  0  0  0  0  0  0  0
   -4.8093    0.1385   -1.2859 H   0  0  0  0  0  0  0  0  0  0  0  0
   -3.1782   -0.3520   -2.8718 H   0  0  0  0  0  0  0  0  0  0  0  0
   -0.6230   -0.0081   -3.1227 H   0  0  0  0  0  0  0  0  0  0  0  0
   -1.1326   -1.7258   -3.2882 H   0  0  0  0  0  0  0  0  0  0  0  0
    1.6437   -3.1185   -0.2306 H   0  0  0  0  0  0  0  0  0  0  0  0
    2.3670   -1.4959    0.0700 H   0  0  0  0  0  0  0  0  0  0  0  0
    3.1600   -2.6582   -1.0464 H   0  0  0  0  0  0  0  0  0  0  0  0
    0.8035   -3.4980   -2.4923 H   0  0  0  0  0  0  0  0  0  0  0  0
    1.4952   -0.2212   -3.4468 H   0  0  0  0  0  0  0  0  0  0  0  0
    2.0854    0.3976   -1.8750 H   0  0  0  0  0  0  0  0  0  0  0  0
    3.7354    0.1340   -3.7751 H   0  0  0  0  0  0  0  0  0  0  0  0
    3.5870   -1.6543   -3.6537 H   0  0  0  0  0  0  0  0  0  0  0  0
    4.2912   -0.4738   -0.9811 H   0  0  0  0  0  0  0  0  0  0  0  0
    6.4644   -0.3926   -0.1975 H   0  0  0  0  0  0  0  0  0  0  0  0
    7.5844   -1.4312   -1.1540 H   0  0  0  0  0  0  0  0  0  0  0  0
    7.5725    0.3583   -1.3981 H   0  0  0  0  0  0  0  0  0  0  0  0
    7.5368   -0.8632   -3.7323 H   0  0  0  0  0  0  0  0  0  0  0  0
    6.0735   -0.0330   -4.3566 H   0  0  0  0  0  0  0  0  0  0  0  0
    6.0723   -1.8313   -4.1178 H   0  0  0  0  0  0  0  0  0  0  0  0
  2  1  1  1  0  0  0
  3  2  1  0  0  0  0
  3 18  1  0  0  0  0
  3 19  1  0  0  0  0
  4  3  1  0  0  0  0
  4 20  1  0  0  0  0
  4 21  1  0  0  0  0
  5  4  1  0  0  0  0
  6  5  1  0  0  0  0
  6 22  1  0  0  0  0
  6 23  1  0  0  0  0
  6 24  1  0  0  0  0
  7  5  2  0  0  0  0
  7 25  1  0  0  0  0
  8  7  1  0  0  0  0
  8  2  1  0  0  0  0
  8 26  1  0  0  0  0
  8 27  1  0  0  0  0
  9  2  1  0  0  0  0
  9 10  1  1  0  0  0
 10 28  1  0  0  0  0
 10 29  1  0  0  0  0
 10 30  1  0  0  0  0
 11  9  1  0  0  0  0
 11 31  1  0  0  0  0
 12  9  1  0  0  0  0
 12 32  1  0  0  0  0
 12 33  1  0  0  0  0
 13 12  1  0  0  0  0
 13 34  1  0  0  0  0
 13 35  1  0  0  0  0
 14 13  1  0  0  0  0
 14 36  1  0  0  0  0
 15 14  2  0  0  0  0
 16 15  1  0  0  0  0
 16 37  1  0  0  0  0
 16 38  1  0  0  0  0
 16 39  1  0  0  0  0
 17 15  1  0  0  0  0
 17 40  1  0  0  0  0
 17 41  1  0  0  0  0
 17 42  1  0  0  0  0
M  END
>  <MOL Chiral Flag>
0

>  <energy>
46.086393706231469

$$$$
