>344.sdf
 OpenBabel10042216403D

 51 51  0  0  0  0  0  0  0  0999 V2000
    3.6379   -3.7252    1.1075 C   0  0  0  0  0  0  0  0  0  0  0  0
    4.1231   -2.3289    0.7623 C   0  0  0  0  0  0  0  0  0  0  0  0
    3.4599   -1.8002   -0.5077 C   0  0  0  0  0  0  0  0  0  0  0  0
    3.9090   -0.3678   -0.7904 C   0  0  0  0  0  0  0  0  0  0  0  0
    3.2170    0.2232   -2.0230 C   0  0  0  0  0  0  0  0  0  0  0  0
    2.7674    1.6250   -1.7323 C   0  0  0  0  0  0  0  0  0  0  0  0
    1.4885    1.9393   -1.4801 C   0  0  0  0  0  0  0  0  0  0  0  0
    1.0834    3.2550   -1.0578 C   0  0  0  0  0  0  0  0  0  0  0  0
   -0.0470    3.5213   -0.3918 C   0  0  0  0  0  0  0  0  0  0  0  0
   -1.1651    2.6431    0.1130 C   0  0  1  0  0  0  0  0  0  0  0  0
   -0.7580    1.7049    1.2723 C   0  0  0  0  0  0  0  0  0  0  0  0
   -0.5376    0.2688    0.8668 C   0  0  0  0  0  0  0  0  0  0  0  0
   -1.4454   -0.7197    0.9248 C   0  0  0  0  0  0  0  0  0  0  0  0
   -2.8776   -0.5615    1.3535 C   0  0  0  0  0  0  0  0  0  0  0  0
   -3.7810   -1.7272    0.9423 C   0  0  0  0  0  0  0  0  0  0  0  0
   -3.9858   -1.8353   -0.5644 C   0  0  0  0  0  0  0  0  0  0  0  0
   -5.0284   -2.8737   -0.8673 C   0  0  0  0  0  0  0  0  0  0  0  0
   -4.5717   -4.1315   -0.7064 O   0  0  0  0  0  0  0  0  0  0  0  0
   -6.1777   -2.6623   -1.2102 O   0  0  0  0  0  0  0  0  0  0  0  0
   -2.1702    3.6538    0.6165 C   0  0  0  0  0  0  0  0  0  0  0  0
   -1.7413    4.9192    0.5756 C   0  0  0  0  0  0  0  0  0  0  0  0
   -0.3923    4.9216   -0.0110 C   0  0  0  0  0  0  0  0  0  0  0  0
    0.3001    5.9102   -0.1537 O   0  0  0  0  0  0  0  0  0  0  0  0
    2.5649   -3.7200    1.3244 H   0  0  0  0  0  0  0  0  0  0  0  0
    4.1615   -4.1007    1.9917 H   0  0  0  0  0  0  0  0  0  0  0  0
    3.8213   -4.4161    0.2794 H   0  0  0  0  0  0  0  0  0  0  0  0
    5.2102   -2.3419    0.6303 H   0  0  0  0  0  0  0  0  0  0  0  0
    3.9078   -1.6592    1.6028 H   0  0  0  0  0  0  0  0  0  0  0  0
    3.7099   -2.4471   -1.3568 H   0  0  0  0  0  0  0  0  0  0  0  0
    2.3708   -1.8262   -0.3848 H   0  0  0  0  0  0  0  0  0  0  0  0
    4.9954   -0.3500   -0.9416 H   0  0  0  0  0  0  0  0  0  0  0  0
    3.7088    0.2391    0.1020 H   0  0  0  0  0  0  0  0  0  0  0  0
    3.9127    0.2415   -2.8690 H   0  0  0  0  0  0  0  0  0  0  0  0
    2.3632   -0.3934   -2.3317 H   0  0  0  0  0  0  0  0  0  0  0  0
    3.5475    2.3789   -1.6428 H   0  0  0  0  0  0  0  0  0  0  0  0
    0.7243    1.1676   -1.5397 H   0  0  0  0  0  0  0  0  0  0  0  0
    1.7624    4.0757   -1.2914 H   0  0  0  0  0  0  0  0  0  0  0  0
   -1.6198    2.0926   -0.7191 H   0  0  0  0  0  0  0  0  0  0  0  0
   -1.5127    1.7253    2.0684 H   0  0  0  0  0  0  0  0  0  0  0  0
    0.1611    2.0582    1.7560 H   0  0  0  0  0  0  0  0  0  0  0  0
    0.4790    0.0120    0.5699 H   0  0  0  0  0  0  0  0  0  0  0  0
   -1.1158   -1.7267    0.6657 H   0  0  0  0  0  0  0  0  0  0  0  0
   -2.9005   -0.4879    2.4467 H   0  0  0  0  0  0  0  0  0  0  0  0
   -3.2937    0.3686    0.9509 H   0  0  0  0  0  0  0  0  0  0  0  0
   -4.7595   -1.5898    1.4230 H   0  0  0  0  0  0  0  0  0  0  0  0
   -3.3734   -2.6701    1.3338 H   0  0  0  0  0  0  0  0  0  0  0  0
   -4.3388   -0.8814   -0.9727 H   0  0  0  0  0  0  0  0  0  0  0  0
   -3.0621   -2.0897   -1.0961 H   0  0  0  0  0  0  0  0  0  0  0  0
   -5.3443   -4.6927   -0.9300 H   0  0  0  0  0  0  0  0  0  0  0  0
   -3.1426    3.3651    0.9972 H   0  0  0  0  0  0  0  0  0  0  0  0
   -2.2445    5.8159    0.8948 H   0  0  0  0  0  0  0  0  0  0  0  0
  1 24  1  0  0  0  0
  1 25  1  0  0  0  0
  1 26  1  0  0  0  0
  2  1  1  0  0  0  0
  2 27  1  0  0  0  0
  2 28  1  0  0  0  0
  3  2  1  0  0  0  0
  3 29  1  0  0  0  0
  3 30  1  0  0  0  0
  4  3  1  0  0  0  0
  4 31  1  0  0  0  0
  4 32  1  0  0  0  0
  5  4  1  0  0  0  0
  5 33  1  0  0  0  0
  5 34  1  0  0  0  0
  6  5  1  0  0  0  0
  6 35  1  0  0  0  0
  7  6  2  0  0  0  0
  7 36  1  0  0  0  0
  8  7  1  0  0  0  0
  8 37  1  0  0  0  0
  9  8  2  0  0  0  0
 10  9  1  0  0  0  0
 10 38  1  6  0  0  0
 11 10  1  0  0  0  0
 11 39  1  0  0  0  0
 11 40  1  0  0  0  0
 12 11  1  0  0  0  0
 12 41  1  0  0  0  0
 13 12  2  0  0  0  0
 13 42  1  0  0  0  0
 14 13  1  0  0  0  0
 14 43  1  0  0  0  0
 14 44  1  0  0  0  0
 15 14  1  0  0  0  0
 15 45  1  0  0  0  0
 15 46  1  0  0  0  0
 16 15  1  0  0  0  0
 16 47  1  0  0  0  0
 16 48  1  0  0  0  0
 17 16  1  0  0  0  0
 18 17  1  0  0  0  0
 18 49  1  0  0  0  0
 19 17  2  0  0  0  0
 20 10  1  0  0  0  0
 20 50  1  0  0  0  0
 21 20  2  0  0  0  0
 21 51  1  0  0  0  0
 22 21  1  0  0  0  0
 22  9  1  0  0  0  0
 23 22  2  0  0  0  0
M  END
>  <energy>
13.266764028114197

$$$$
