>345.sdf
 OpenBabel10062212533D

 80 84  0  0  0  0  0  0  0  0999 V2000
    5.0597   -3.2229   -1.1334 C   0  0  0  0  0  0  0  0  0  0  0  0
    4.8626   -1.7032   -1.3308 C   0  0  0  0  0  0  0  0  0  0  0  0
    5.3368   -1.3603   -2.7662 C   0  0  0  0  0  0  0  0  0  0  0  0
    5.6805   -0.9483   -0.2504 C   0  0  0  0  0  0  0  0  0  0  0  0
    5.4509    0.5695   -0.3175 C   0  0  0  0  0  0  0  0  0  0  0  0
    3.9551    0.9966   -0.1729 C   0  0  2  0  0  0  0  0  0  0  0  0
    3.4273    0.7558    1.2837 C   0  0  0  0  0  0  0  0  0  0  0  0
    1.9484    1.2087    1.4486 C   0  0  0  0  0  0  0  0  0  0  0  0
    0.9279    0.5228    0.4691 C   0  0  2  0  0  0  0  0  0  0  0  0
    0.7440   -0.9414    0.9957 C   0  0  0  0  0  0  0  0  0  0  0  0
    1.5659    0.4680   -0.9550 C   0  0  0  0  0  0  0  0  0  0  0  0
    0.8330    0.6887   -2.0714 C   0  0  0  0  0  0  0  0  0  0  0  0
   -0.6453    0.9432   -2.0977 C   0  0  0  0  0  0  0  0  0  0  0  0
   -1.3671    0.7262   -0.7449 C   0  0  2  0  0  0  0  0  0  0  0  0
   -2.9363    1.0713   -0.7934 C   0  0  1  0  0  0  0  0  0  0  0  0
   -3.2185    2.5163   -1.3285 C   0  0  0  0  0  0  0  0  0  0  0  0
   -3.6393    0.0762   -1.7753 C   0  0  0  0  0  0  0  0  0  0  0  0
   -5.1808    0.1265   -1.7055 C   0  0  0  0  0  0  0  0  0  0  0  0
   -5.6687   -0.1940   -0.2843 C   0  0  2  0  0  0  0  0  0  0  0  0
   -7.0752   -0.2008   -0.2558 O   0  0  0  0  0  0  0  0  0  0  0  0
   -5.1004    0.7836    0.7977 C   0  0  0  0  0  0  0  0  0  0  0  0
   -5.4965    0.2002    2.1850 C   0  0  0  0  0  0  0  0  0  0  0  0
   -5.7684    2.1826    0.7264 C   0  0  0  0  0  0  0  0  0  0  0  0
   -3.5191    0.7948    0.6516 C   0  0  2  0  0  0  0  0  0  0  0  0
   -2.7569    1.6469    1.7065 C   0  0  0  0  0  0  0  0  0  0  0  0
   -1.2882    1.1899    1.7669 C   0  0  0  0  0  0  0  0  0  0  0  0
   -0.4988    1.3321    0.4247 C   0  0  1  0  0  0  0  0  0  0  0  0
   -0.2454    2.8604    0.1966 C   0  0  0  0  0  0  0  0  0  0  0  0
    3.0672    0.1722   -1.1567 C   0  0  2  0  0  0  0  0  0  0  0  0
    3.3670   -1.3566   -1.1263 C   0  0  0  0  0  0  0  0  0  0  0  0
    3.9308    2.4836   -0.5633 C   0  0  0  0  0  0  0  0  0  0  0  0
    4.2605    2.8469   -1.8193 O   0  0  0  0  0  0  0  0  0  0  0  0
    3.6972    3.3576    0.2567 O   0  0  0  0  0  0  0  0  0  0  0  0
    4.4619   -3.7966   -1.8746 H   0  0  0  0  0  0  0  0  0  0  0  0
    4.7388   -3.5377   -0.1166 H   0  0  0  0  0  0  0  0  0  0  0  0
    6.1289   -3.5007   -1.2557 H   0  0  0  0  0  0  0  0  0  0  0  0
    6.4066   -1.6328   -2.8932 H   0  0  0  0  0  0  0  0  0  0  0  0
    4.7438   -1.9318   -3.5126 H   0  0  0  0  0  0  0  0  0  0  0  0
    5.2382   -0.2902   -3.0254 H   0  0  0  0  0  0  0  0  0  0  0  0
    5.3917   -1.3072    0.7605 H   0  0  0  0  0  0  0  0  0  0  0  0
    6.7649   -1.1621   -0.3749 H   0  0  0  0  0  0  0  0  0  0  0  0
    6.0631    1.0752    0.4613 H   0  0  0  0  0  0  0  0  0  0  0  0
    5.8513    0.9128   -1.2938 H   0  0  0  0  0  0  0  0  0  0  0  0
    4.0546    1.3266    2.0032 H   0  0  0  0  0  0  0  0  0  0  0  0
    3.5177   -0.3082    1.5691 H   0  0  0  0  0  0  0  0  0  0  0  0
    1.6211    1.0786    2.5026 H   0  0  0  0  0  0  0  0  0  0  0  0
    1.9752    2.2836    1.2866 H   0  0  0  0  0  0  0  0  0  0  0  0
    0.1287   -1.5751    0.3303 H   0  0  0  0  0  0  0  0  0  0  0  0
    1.6740   -1.4792    1.1691 H   0  0  0  0  0  0  0  0  0  0  0  0
    0.3336   -0.9768    2.0192 H   0  0  0  0  0  0  0  0  0  0  0  0
    1.3266    0.6834   -3.0395 H   0  0  0  0  0  0  0  0  0  0  0  0
   -1.0907    0.2623   -2.8501 H   0  0  0  0  0  0  0  0  0  0  0  0
   -0.7385    1.9797   -2.4684 H   0  0  0  0  0  0  0  0  0  0  0  0
   -1.3552   -0.3620   -0.5553 H   0  0  0  0  0  0  0  0  0  0  0  0
   -3.0137    3.3264   -0.6221 H   0  0  0  0  0  0  0  0  0  0  0  0
   -4.2525    2.6893   -1.6254 H   0  0  0  0  0  0  0  0  0  0  0  0
   -2.7010    2.7155   -2.2824 H   0  0  0  0  0  0  0  0  0  0  0  0
   -3.3424   -0.9655   -1.5195 H   0  0  0  0  0  0  0  0  0  0  0  0
   -3.3261    0.2626   -2.8240 H   0  0  0  0  0  0  0  0  0  0  0  0
   -5.5858   -0.6377   -2.4045 H   0  0  0  0  0  0  0  0  0  0  0  0
   -5.5859    1.0987   -2.0416 H   0  0  0  0  0  0  0  0  0  0  0  0
   -5.2868   -1.2168   -0.0404 H   0  0  0  0  0  0  0  0  0  0  0  0
   -7.3708   -1.1128   -0.5142 H   0  0  0  0  0  0  0  0  0  0  0  0
   -5.0509   -0.8059    2.3397 H   0  0  0  0  0  0  0  0  0  0  0  0
   -5.1882    0.8532    3.0248 H   0  0  0  0  0  0  0  0  0  0  0  0
   -6.5998    0.0935    2.2699 H   0  0  0  0  0  0  0  0  0  0  0  0
   -5.7217    2.6781   -0.2451 H   0  0  0  0  0  0  0  0  0  0  0  0
   -5.3364    2.8621    1.4907 H   0  0  0  0  0  0  0  0  0  0  0  0
   -6.8566    2.0993    0.9358 H   0  0  0  0  0  0  0  0  0  0  0  0
   -3.2554   -0.2666    0.8737 H   0  0  0  0  0  0  0  0  0  0  0  0
   -2.8561    2.7331    1.5203 H   0  0  0  0  0  0  0  0  0  0  0  0
   -3.1553    1.4624    2.7216 H   0  0  0  0  0  0  0  0  0  0  0  0
   -1.3784    0.1325    2.0637 H   0  0  0  0  0  0  0  0  0  0  0  0
   -0.7539    1.7142    2.5884 H   0  0  0  0  0  0  0  0  0  0  0  0
   -1.1482    3.4580    0.1085 H   0  0  0  0  0  0  0  0  0  0  0  0
    0.3794    3.0556   -0.6977 H   0  0  0  0  0  0  0  0  0  0  0  0
    0.2363    3.3403    1.0685 H   0  0  0  0  0  0  0  0  0  0  0  0
    3.3513    0.4654   -2.1889 H   0  0  0  0  0  0  0  0  0  0  0  0
    2.7469   -1.8738   -1.8920 H   0  0  0  0  0  0  0  0  0  0  0  0
    3.1130   -1.7878   -0.1601 H   0  0  0  0  0  0  0  0  0  0  0  0
  1 34  1  0  0  0  0
  1 35  1  0  0  0  0
  1 36  1  0  0  0  0
  2  1  1  0  0  0  0
  3  2  1  0  0  0  0
  3 37  1  0  0  0  0
  3 38  1  0  0  0  0
  3 39  1  0  0  0  0
  4  2  1  0  0  0  0
  4 40  1  0  0  0  0
  4 41  1  0  0  0  0
  5  4  1  0  0  0  0
  5 42  1  0  0  0  0
  5 43  1  0  0  0  0
  6  5  1  0  0  0  0
  6 31  1  6  0  0  0
  7  6  1  0  0  0  0
  7 44  1  0  0  0  0
  7 45  1  0  0  0  0
  8  7  1  0  0  0  0
  8 46  1  0  0  0  0
  8 47  1  0  0  0  0
  9  8  1  0  0  0  0
  9 10  1  1  0  0  0
 10 48  1  0  0  0  0
 10 49  1  0  0  0  0
 10 50  1  0  0  0  0
 11  9  1  0  0  0  0
 12 11  2  0  0  0  0
 12 51  1  0  0  0  0
 13 12  1  0  0  0  0
 13 52  1  0  0  0  0
 13 53  1  0  0  0  0
 14 13  1  0  0  0  0
 14 54  1  1  0  0  0
 15 14  1  0  0  0  0
 15 16  1  6  0  0  0
 16 55  1  0  0  0  0
 16 56  1  0  0  0  0
 16 57  1  0  0  0  0
 17 15  1  0  0  0  0
 17 58  1  0  0  0  0
 17 59  1  0  0  0  0
 18 17  1  0  0  0  0
 18 60  1  0  0  0  0
 18 61  1  0  0  0  0
 19 18  1  0  0  0  0
 19 62  1  1  0  0  0
 20 19  1  0  0  0  0
 20 63  1  0  0  0  0
 21 19  1  0  0  0  0
 22 21  1  0  0  0  0
 22 64  1  0  0  0  0
 22 65  1  0  0  0  0
 22 66  1  0  0  0  0
 23 21  1  0  0  0  0
 23 67  1  0  0  0  0
 23 68  1  0  0  0  0
 23 69  1  0  0  0  0
 24 21  1  0  0  0  0
 24 15  1  0  0  0  0
 24 70  1  1  0  0  0
 25 24  1  0  0  0  0
 25 71  1  0  0  0  0
 25 72  1  0  0  0  0
 26 25  1  0  0  0  0
 26 73  1  0  0  0  0
 26 74  1  0  0  0  0
 27 26  1  0  0  0  0
 27  9  1  0  0  0  0
 27 14  1  0  0  0  0
 27 28  1  6  0  0  0
 28 75  1  0  0  0  0
 28 76  1  0  0  0  0
 28 77  1  0  0  0  0
 29 11  1  0  0  0  0
 29  6  1  0  0  0  0
 29 78  1  6  0  0  0
 30 29  1  0  0  0  0
 30  2  1  0  0  0  0
 30 79  1  0  0  0  0
 30 80  1  0  0  0  0
 32 31  1  0  0  0  0
 33 31  2  0  0  0  0
M  END
>  <MOL Chiral Flag>
0

>  <energy>
145.06611595727017

$$$$
