>35.sdf
 OpenBabel10052218033D

 44 46  0  0  0  0  0  0  0  0999 V2000
    5.0481    0.9846    1.7311 C   0  0  0  0  0  0  0  0  0  0  0  0
    5.2333    2.7868    1.4660 S   0  0  0  0  0  0  0  0  0  0  0  0
    4.2049    2.8635   -0.0099 C   0  0  0  0  0  0  0  0  0  0  0  0
    2.9034    2.3899    0.0288 C   0  0  0  0  0  0  0  0  0  0  0  0
    2.1133    2.4245   -1.1405 C   0  0  0  0  0  0  0  0  0  0  0  0
    0.7258    1.8541   -1.1777 C   0  0  0  0  0  0  0  0  0  0  0  0
    0.1078    1.4554   -0.0475 C   0  0  0  0  0  0  0  0  0  0  0  0
   -1.1749    0.7350    0.0832 C   0  0  0  0  0  0  0  0  0  0  0  0
   -1.5670    0.4223    1.3944 C   0  0  0  0  0  0  0  0  0  0  0  0
   -2.6368   -0.4152    1.6340 C   0  0  0  0  0  0  0  0  0  0  0  0
   -3.3225   -0.9820    0.5698 C   0  0  0  0  0  0  0  0  0  0  0  0
   -4.1523   -2.0122    0.8317 O   0  0  0  0  0  0  0  0  0  0  0  0
   -3.6704   -3.3300    0.8573 C   0  0  0  0  0  0  0  0  0  0  0  0
   -2.2810   -3.4908    0.2214 C   0  0  0  0  0  0  0  0  0  0  0  0
   -2.1604   -4.1073   -1.0336 C   0  0  0  0  0  0  0  0  0  0  0  0
   -0.9204   -4.1642   -1.6785 C   0  0  0  0  0  0  0  0  0  0  0  0
    0.2126   -3.6105   -1.0776 C   0  0  0  0  0  0  0  0  0  0  0  0
    0.1148   -3.0197    0.1824 C   0  0  0  0  0  0  0  0  0  0  0  0
   -1.1203   -2.9683    0.8371 C   0  0  0  0  0  0  0  0  0  0  0  0
   -3.0162   -0.6118   -0.7527 C   0  0  0  0  0  0  0  0  0  0  0  0
   -1.9376    0.2537   -1.0012 C   0  0  0  0  0  0  0  0  0  0  0  0
    2.6595    2.9420   -2.2754 N   0  0  0  0  0  0  0  0  0  0  0  0
    3.9331    3.4314   -2.2879 C   0  0  0  0  0  0  0  0  0  0  0  0
    4.4676    3.9957   -3.4652 N   0  0  0  0  0  0  0  0  0  0  0  0
    4.6971    3.3818   -1.1604 N   0  0  0  0  0  0  0  0  0  0  0  0
    4.0548    0.7427    2.1658 H   0  0  0  0  0  0  0  0  0  0  0  0
    5.2173    0.4276    0.7861 H   0  0  0  0  0  0  0  0  0  0  0  0
    5.8192    0.6488    2.4532 H   0  0  0  0  0  0  0  0  0  0  0  0
    2.5614    1.9808    0.9579 H   0  0  0  0  0  0  0  0  0  0  0  0
    0.2401    1.7333   -2.1412 H   0  0  0  0  0  0  0  0  0  0  0  0
    0.6009    1.6033    0.8920 H   0  0  0  0  0  0  0  0  0  0  0  0
   -0.9895    0.7693    2.2419 H   0  0  0  0  0  0  0  0  0  0  0  0
   -2.8637   -0.7147    2.6494 H   0  0  0  0  0  0  0  0  0  0  0  0
   -3.6610   -3.7094    1.9027 H   0  0  0  0  0  0  0  0  0  0  0  0
   -4.3975   -3.9489    0.2948 H   0  0  0  0  0  0  0  0  0  0  0  0
   -3.0329   -4.5141   -1.5263 H   0  0  0  0  0  0  0  0  0  0  0  0
   -0.8424   -4.6223   -2.6549 H   0  0  0  0  0  0  0  0  0  0  0  0
    1.1664   -3.6387   -1.5893 H   0  0  0  0  0  0  0  0  0  0  0  0
    0.9944   -2.5892    0.6467 H   0  0  0  0  0  0  0  0  0  0  0  0
   -1.1710   -2.5003    1.8097 H   0  0  0  0  0  0  0  0  0  0  0  0
   -3.5517   -1.0602   -1.5813 H   0  0  0  0  0  0  0  0  0  0  0  0
   -1.6615    0.4686   -2.0248 H   0  0  0  0  0  0  0  0  0  0  0  0
    3.8997    4.0459   -4.3233 H   0  0  0  0  0  0  0  0  0  0  0  0
    5.4237    4.3795   -3.4672 H   0  0  0  0  0  0  0  0  0  0  0  0
  1 26  1  0  0  0  0
  1 27  1  0  0  0  0
  1 28  1  0  0  0  0
  2  1  1  0  0  0  0
  3  2  1  0  0  0  0
  4  3  2  0  0  0  0
  4 29  1  0  0  0  0
  5  4  1  0  0  0  0
  6  5  1  0  0  0  0
  6 30  1  0  0  0  0
  7  6  2  0  0  0  0
  7 31  1  0  0  0  0
  8  7  1  0  0  0  0
  9  8  2  0  0  0  0
  9 32  1  0  0  0  0
 10  9  1  0  0  0  0
 10 33  1  0  0  0  0
 11 10  2  0  0  0  0
 12 11  1  0  0  0  0
 13 12  1  0  0  0  0
 13 34  1  0  0  0  0
 13 35  1  0  0  0  0
 14 13  1  0  0  0  0
 15 14  2  0  0  0  0
 15 36  1  0  0  0  0
 16 15  1  0  0  0  0
 16 37  1  0  0  0  0
 17 16  2  0  0  0  0
 17 38  1  0  0  0  0
 18 17  1  0  0  0  0
 18 39  1  0  0  0  0
 19 18  2  0  0  0  0
 19 14  1  0  0  0  0
 19 40  1  0  0  0  0
 20 11  1  0  0  0  0
 20 41  1  0  0  0  0
 21 20  2  0  0  0  0
 21  8  1  0  0  0  0
 21 42  1  0  0  0  0
 22  5  2  0  0  0  0
 23 22  1  0  0  0  0
 24 23  1  0  0  0  0
 24 43  1  0  0  0  0
 24 44  1  0  0  0  0
 25 23  2  0  0  0  0
 25  3  1  0  0  0  0
M  END
>  <MOL Chiral Flag>
0

>  <energy>
-45.800945324653107

$$$$
