>350.sdf
 OpenBabel10062212553D

 28 29  0  0  0  0  0  0  0  0999 V2000
    1.0608   -0.3483   -2.3378 O   0  0  0  0  0  0  0  0  0  0  0  0
    1.2804   -0.7649   -1.2088 C   0  0  0  0  0  0  0  0  0  0  0  0
    0.2517   -1.1420   -0.4089 N   0  0  0  0  0  0  0  0  0  0  0  0
   -1.0007   -0.6180   -0.6047 N   0  0  0  0  0  0  0  0  0  0  0  0
   -2.0084   -1.0536    0.0601 C   0  0  0  0  0  0  0  0  0  0  0  0
   -3.1995   -0.2127    0.2035 C   0  0  0  0  0  0  0  0  0  0  0  0
   -4.4016   -0.5836    0.7673 C   0  0  0  0  0  0  0  0  0  0  0  0
   -5.1982    0.4625    0.8087 O   0  0  0  0  0  0  0  0  0  0  0  0
   -4.5618    1.5008    0.3096 C   0  0  0  0  0  0  0  0  0  0  0  0
   -3.2961    1.1312   -0.0960 C   0  0  0  0  0  0  0  0  0  0  0  0
   -5.1068    2.8083    0.2569 N   0  0  0  0  0  0  0  0  0  0  0  0
   -6.2207    3.0055    0.6313 O   0  0  0  0  0  0  0  0  0  0  0  0
   -4.4378    3.7247   -0.1205 O   0  0  0  0  0  0  0  0  0  0  0  0
    2.6533   -0.6820   -0.6502 C   0  0  0  0  0  0  0  0  0  0  0  0
    2.8101   -0.4553    0.7336 C   0  0  0  0  0  0  0  0  0  0  0  0
    4.0683   -0.2282    1.2781 C   0  0  0  0  0  0  0  0  0  0  0  0
    5.1945   -0.2403    0.4590 C   0  0  0  0  0  0  0  0  0  0  0  0
    5.0605   -0.4773   -0.9136 C   0  0  0  0  0  0  0  0  0  0  0  0
    3.7922   -0.6848   -1.4742 C   0  0  0  0  0  0  0  0  0  0  0  0
    0.4487   -1.6045    0.4911 H   0  0  0  0  0  0  0  0  0  0  0  0
   -1.9306   -1.9587    0.6578 H   0  0  0  0  0  0  0  0  0  0  0  0
   -4.6575   -1.5669    1.1376 H   0  0  0  0  0  0  0  0  0  0  0  0
   -2.5258    1.7706   -0.5119 H   0  0  0  0  0  0  0  0  0  0  0  0
    1.9557   -0.3915    1.3931 H   0  0  0  0  0  0  0  0  0  0  0  0
    4.1613   -0.0205    2.3364 H   0  0  0  0  0  0  0  0  0  0  0  0
    6.1685   -0.0517    0.8888 H   0  0  0  0  0  0  0  0  0  0  0  0
    5.9389   -0.4786   -1.5442 H   0  0  0  0  0  0  0  0  0  0  0  0
    3.7004   -0.8398   -2.5422 H   0  0  0  0  0  0  0  0  0  0  0  0
  2  1  2  0  0  0  0
  3  2  1  0  0  0  0
  3 20  1  0  0  0  0
  4  3  1  0  0  0  0
  5  4  2  0  0  0  0
  5 21  1  0  0  0  0
  6  5  1  0  0  0  0
  7  6  2  0  0  0  0
  7 22  1  0  0  0  0
  8  7  1  0  0  0  0
  9  8  1  0  0  0  0
 10  9  2  0  0  0  0
 10  6  1  0  0  0  0
 10 23  1  0  0  0  0
 11  9  1  0  0  0  0
 12 11  2  0  0  0  0
 13 11  2  0  0  0  0
 14  2  1  0  0  0  0
 15 14  2  0  0  0  0
 15 24  1  0  0  0  0
 16 15  1  0  0  0  0
 16 25  1  0  0  0  0
 17 16  2  0  0  0  0
 17 26  1  0  0  0  0
 18 17  1  0  0  0  0
 18 27  1  0  0  0  0
 19 18  2  0  0  0  0
 19 14  1  0  0  0  0
 19 28  1  0  0  0  0
M  END
>  <MOL Chiral Flag>
0

>  <energy>
126.46373512886589

$$$$
