>351.sdf
 OpenBabel10062212563D

 74 77  0  0  0  0  0  0  0  0999 V2000
   -5.8593   -3.8100    0.0749 C   0  0  0  0  0  0  0  0  0  0  0  0
   -5.0062   -3.0006   -0.9171 C   0  0  0  0  0  0  0  0  0  0  0  0
   -4.1132   -3.9742   -1.7063 C   0  0  0  0  0  0  0  0  0  0  0  0
   -4.1513   -1.9063   -0.2737 C   0  0  0  0  0  0  0  0  0  0  0  0
   -4.0626   -1.7341    1.1208 C   0  0  0  0  0  0  0  0  0  0  0  0
   -3.2493   -0.7413    1.6675 C   0  0  0  0  0  0  0  0  0  0  0  0
   -2.4924    0.1161    0.8393 C   0  0  0  0  0  0  0  0  0  0  0  0
   -2.5827   -0.0511   -0.5645 C   0  0  0  0  0  0  0  0  0  0  0  0
   -3.4166   -1.0441   -1.1044 C   0  0  0  0  0  0  0  0  0  0  0  0
   -1.7694    0.8037   -1.4668 C   0  0  0  0  0  0  0  0  0  0  0  0
   -2.0228    0.8540   -2.6615 O   0  0  0  0  0  0  0  0  0  0  0  0
   -0.6142    1.6059   -0.9287 C   0  0  0  0  0  0  0  0  0  0  0  0
   -0.2569    1.1949    0.5383 C   0  0  1  0  0  0  0  0  0  0  0  0
    1.0371    1.9312    1.1042 C   0  0  1  0  0  0  0  0  0  0  0  0
    0.9647    3.4715    0.9144 C   0  0  0  0  0  0  0  0  0  0  0  0
    1.1848    1.5962    2.6139 C   0  0  0  0  0  0  0  0  0  0  0  0
   -0.0910    1.8518    3.4215 C   0  0  0  0  0  0  0  0  0  0  0  0
   -1.2103    0.9471    2.9007 C   0  0  0  0  0  0  0  0  0  0  0  0
   -1.5751    1.2249    1.4127 C   0  0  2  0  0  0  0  0  0  0  0  0
   -2.3878    2.5495    1.3403 C   0  0  0  0  0  0  0  0  0  0  0  0
    2.3689    1.4738    0.4364 C   0  0  0  0  0  0  0  0  0  0  0  0
    3.4075    2.0082    0.8072 O   0  0  0  0  0  0  0  0  0  0  0  0
    2.4272    0.5203   -0.5494 N   0  0  0  0  0  0  0  0  0  0  0  0
    3.6595    0.1823   -1.2566 C   0  0  1  0  0  0  0  0  0  0  0  0
    3.7757   -1.3498   -1.4375 C   0  0  0  0  0  0  0  0  0  0  0  0
    3.9329   -2.1789   -0.1437 C   0  0  0  0  0  0  0  0  0  0  0  0
    3.8566   -3.6820   -0.5082 C   0  0  0  0  0  0  0  0  0  0  0  0
    4.0470   -4.5662    0.7295 C   0  0  0  0  0  0  0  0  0  0  0  0
    5.3995   -4.2692    1.3847 C   0  0  0  0  0  0  0  0  0  0  0  0
    5.4766   -2.7897    1.7829 C   0  0  0  0  0  0  0  0  0  0  0  0
    5.2837   -1.8885    0.5539 C   0  0  0  0  0  0  0  0  0  0  0  0
    3.6406    0.8254   -2.6269 C   0  0  0  0  0  0  0  0  0  0  0  0
    4.6934    0.6709   -3.4530 O   0  0  0  0  0  0  0  0  0  0  0  0
    2.6897    1.5023   -2.9884 O   0  0  0  0  0  0  0  0  0  0  0  0
   -6.5484   -3.1375    0.6284 H   0  0  0  0  0  0  0  0  0  0  0  0
   -6.4794   -4.5524   -0.4718 H   0  0  0  0  0  0  0  0  0  0  0  0
   -5.2182   -4.3621    0.7960 H   0  0  0  0  0  0  0  0  0  0  0  0
   -5.7117   -2.5091   -1.6225 H   0  0  0  0  0  0  0  0  0  0  0  0
   -3.3955   -4.4804   -1.0244 H   0  0  0  0  0  0  0  0  0  0  0  0
   -3.5366   -3.4489   -2.4951 H   0  0  0  0  0  0  0  0  0  0  0  0
   -4.7325   -4.7476   -2.2085 H   0  0  0  0  0  0  0  0  0  0  0  0
   -4.6119   -2.3667    1.8021 H   0  0  0  0  0  0  0  0  0  0  0  0
   -3.2232   -0.6550    2.7425 H   0  0  0  0  0  0  0  0  0  0  0  0
   -3.4748   -1.1636   -2.1790 H   0  0  0  0  0  0  0  0  0  0  0  0
    0.2434    1.4642   -1.6062 H   0  0  0  0  0  0  0  0  0  0  0  0
   -0.8756    2.6799   -1.0134 H   0  0  0  0  0  0  0  0  0  0  0  0
    0.0233    0.1173    0.5665 H   0  0  0  0  0  0  0  0  0  0  0  0
    1.8609    3.9626    1.3510 H   0  0  0  0  0  0  0  0  0  0  0  0
    0.1049    3.9451    1.4016 H   0  0  0  0  0  0  0  0  0  0  0  0
    0.9473    3.7401   -0.1621 H   0  0  0  0  0  0  0  0  0  0  0  0
    2.0204    2.1799    3.0601 H   0  0  0  0  0  0  0  0  0  0  0  0
    1.4410    0.5180    2.7261 H   0  0  0  0  0  0  0  0  0  0  0  0
    0.1054    1.5922    4.4842 H   0  0  0  0  0  0  0  0  0  0  0  0
   -0.3818    2.9209    3.3960 H   0  0  0  0  0  0  0  0  0  0  0  0
   -0.8536   -0.1025    3.0029 H   0  0  0  0  0  0  0  0  0  0  0  0
   -2.1006    1.0720    3.5552 H   0  0  0  0  0  0  0  0  0  0  0  0
   -3.3213    2.4431    1.9345 H   0  0  0  0  0  0  0  0  0  0  0  0
   -2.7072    2.7946    0.3074 H   0  0  0  0  0  0  0  0  0  0  0  0
   -1.8708    3.4236    1.7576 H   0  0  0  0  0  0  0  0  0  0  0  0
    1.5774    0.0566   -0.8821 H   0  0  0  0  0  0  0  0  0  0  0  0
    4.5555    0.5877   -0.7421 H   0  0  0  0  0  0  0  0  0  0  0  0
    2.8587   -1.6896   -1.9706 H   0  0  0  0  0  0  0  0  0  0  0  0
    4.6446   -1.5797   -2.0940 H   0  0  0  0  0  0  0  0  0  0  0  0
    3.0960   -1.9467    0.5526 H   0  0  0  0  0  0  0  0  0  0  0  0
    4.6479   -3.9315   -1.2505 H   0  0  0  0  0  0  0  0  0  0  0  0
    2.8696   -3.9118   -0.9663 H   0  0  0  0  0  0  0  0  0  0  0  0
    3.2282   -4.3734    1.4570 H   0  0  0  0  0  0  0  0  0  0  0  0
    4.0036   -5.6364    0.4320 H   0  0  0  0  0  0  0  0  0  0  0  0
    6.2191   -4.5083    0.6705 H   0  0  0  0  0  0  0  0  0  0  0  0
    5.5277   -4.9084    2.2843 H   0  0  0  0  0  0  0  0  0  0  0  0
    4.6876   -2.5676    2.5342 H   0  0  0  0  0  0  0  0  0  0  0  0
    6.4663   -2.5827    2.2439 H   0  0  0  0  0  0  0  0  0  0  0  0
    6.1178   -2.0777   -0.1585 H   0  0  0  0  0  0  0  0  0  0  0  0
    5.3364   -0.8289    0.8787 H   0  0  0  0  0  0  0  0  0  0  0  0
  1 35  1  0  0  0  0
  1 36  1  0  0  0  0
  1 37  1  0  0  0  0
  2  1  1  0  0  0  0
  2 38  1  0  0  0  0
  3  2  1  0  0  0  0
  3 39  1  0  0  0  0
  3 40  1  0  0  0  0
  3 41  1  0  0  0  0
  4  2  1  0  0  0  0
  5  4  2  0  0  0  0
  5 42  1  0  0  0  0
  6  5  1  0  0  0  0
  6 43  1  0  0  0  0
  7  6  2  0  0  0  0
  8  7  1  0  0  0  0
  9  8  2  0  0  0  0
  9  4  1  0  0  0  0
  9 44  1  0  0  0  0
 10  8  1  0  0  0  0
 11 10  2  0  0  0  0
 12 10  1  0  0  0  0
 12 45  1  0  0  0  0
 12 46  1  0  0  0  0
 13 12  1  0  0  0  0
 13 47  1  6  0  0  0
 14 13  1  0  0  0  0
 14 15  1  6  0  0  0
 15 48  1  0  0  0  0
 15 49  1  0  0  0  0
 15 50  1  0  0  0  0
 16 14  1  0  0  0  0
 16 51  1  0  0  0  0
 16 52  1  0  0  0  0
 17 16  1  0  0  0  0
 17 53  1  0  0  0  0
 17 54  1  0  0  0  0
 18 17  1  0  0  0  0
 18 55  1  0  0  0  0
 18 56  1  0  0  0  0
 19 18  1  0  0  0  0
 19  7  1  0  0  0  0
 19 13  1  0  0  0  0
 19 20  1  6  0  0  0
 20 57  1  0  0  0  0
 20 58  1  0  0  0  0
 20 59  1  0  0  0  0
 21 14  1  0  0  0  0
 22 21  2  0  0  0  0
 23 21  1  0  0  0  0
 23 60  1  0  0  0  0
 24 23  1  0  0  0  0
 24 61  1  1  0  0  0
 25 24  1  0  0  0  0
 25 62  1  0  0  0  0
 25 63  1  0  0  0  0
 26 25  1  0  0  0  0
 26 64  1  0  0  0  0
 27 26  1  0  0  0  0
 27 65  1  0  0  0  0
 27 66  1  0  0  0  0
 28 27  1  0  0  0  0
 28 67  1  0  0  0  0
 28 68  1  0  0  0  0
 29 28  1  0  0  0  0
 29 69  1  0  0  0  0
 29 70  1  0  0  0  0
 30 29  1  0  0  0  0
 30 71  1  0  0  0  0
 30 72  1  0  0  0  0
 31 30  1  0  0  0  0
 31 26  1  0  0  0  0
 31 73  1  0  0  0  0
 31 74  1  0  0  0  0
 32 24  1  0  0  0  0
 33 32  1  0  0  0  0
 34 32  2  0  0  0  0
M  END
>  <MOL Chiral Flag>
0

>  <energy>
112.23873157264757

$$$$
