>354.sdf
 OpenBabel10062212583D

 43 43  0  0  0  0  0  0  0  0999 V2000
   -9.9408   -2.2953    2.0322 C   0  0  0  0  0  0  0  0  0  0  0  0
   -8.9342   -2.0094    0.9184 C   0  0  0  0  0  0  0  0  0  0  0  0
   -7.5290   -2.4719    1.3172 C   0  0  0  0  0  0  0  0  0  0  0  0
   -6.4947   -2.1866    0.2148 C   0  0  0  0  0  0  0  0  0  0  0  0
   -5.1071   -2.6554    0.6689 C   0  0  0  0  0  0  0  0  0  0  0  0
   -3.9806   -2.2820   -0.3121 C   0  0  0  0  0  0  0  0  0  0  0  0
   -2.6405   -2.7575    0.2699 C   0  0  0  0  0  0  0  0  0  0  0  0
   -1.3932   -2.2777   -0.4975 C   0  0  0  0  0  0  0  0  0  0  0  0
   -0.1924   -2.8075    0.1738 N   0  3  0  0  0  0  0  0  0  0  0  0
    1.0811   -2.4561   -0.4801 C   0  0  0  0  0  0  0  0  0  0  0  0
    1.5624   -1.0425   -0.2106 C   0  0  0  0  0  0  0  0  0  0  0  0
    1.7784   -0.5959    1.1071 C   0  0  0  0  0  0  0  0  0  0  0  0
    2.2960    0.6828    1.3455 C   0  0  0  0  0  0  0  0  0  0  0  0
    2.6125    1.5256    0.2714 C   0  0  0  0  0  0  0  0  0  0  0  0
    3.1362    2.7508    0.4888 O   0  0  0  0  0  0  0  0  0  0  0  0
    2.3951    1.0898   -1.0391 C   0  0  0  0  0  0  0  0  0  0  0  0
    1.8708   -0.1859   -1.2813 C   0  0  0  0  0  0  0  0  0  0  0  0
   -9.6560   -1.7567    2.9616 H   0  0  0  0  0  0  0  0  0  0  0  0
  -10.9507   -1.9544    1.7214 H   0  0  0  0  0  0  0  0  0  0  0  0
   -9.9843   -3.3851    2.2442 H   0  0  0  0  0  0  0  0  0  0  0  0
   -9.2553   -2.5427   -0.0020 H   0  0  0  0  0  0  0  0  0  0  0  0
   -8.9254   -0.9161    0.7159 H   0  0  0  0  0  0  0  0  0  0  0  0
   -7.2268   -1.9344    2.2443 H   0  0  0  0  0  0  0  0  0  0  0  0
   -7.5497   -3.5632    1.5314 H   0  0  0  0  0  0  0  0  0  0  0  0
   -6.4706   -1.0924    0.0195 H   0  0  0  0  0  0  0  0  0  0  0  0
   -6.7782   -2.7140   -0.7225 H   0  0  0  0  0  0  0  0  0  0  0  0
   -5.1271   -3.7577    0.8213 H   0  0  0  0  0  0  0  0  0  0  0  0
   -4.8814   -2.1684    1.6435 H   0  0  0  0  0  0  0  0  0  0  0  0
   -3.9630   -1.1773   -0.4287 H   0  0  0  0  0  0  0  0  0  0  0  0
   -4.1524   -2.7470   -1.3087 H   0  0  0  0  0  0  0  0  0  0  0  0
   -2.6502   -3.8704    0.3062 H   0  0  0  0  0  0  0  0  0  0  0  0
   -2.5499   -2.3737    1.3089 H   0  0  0  0  0  0  0  0  0  0  0  0
   -1.3686   -1.1655   -0.5049 H   0  0  0  0  0  0  0  0  0  0  0  0
   -1.4388   -2.6439   -1.5481 H   0  0  0  0  0  0  0  0  0  0  0  0
   -0.2616   -3.8525    0.1543 H   0  0  0  0  0  0  0  0  0  0  0  0
   -0.1773   -2.5135    1.1774 H   0  0  0  0  0  0  0  0  0  0  0  0
    1.0211   -2.6688   -1.5706 H   0  0  0  0  0  0  0  0  0  0  0  0
    1.8712   -3.1231   -0.0691 H   0  0  0  0  0  0  0  0  0  0  0  0
    1.5642   -1.2395    1.9500 H   0  0  0  0  0  0  0  0  0  0  0  0
    2.4644    1.0113    2.3637 H   0  0  0  0  0  0  0  0  0  0  0  0
    3.3202    3.0759    1.3818 H   0  0  0  0  0  0  0  0  0  0  0  0
    2.6465    1.7344   -1.8719 H   0  0  0  0  0  0  0  0  0  0  0  0
    1.7300   -0.5135   -2.3032 H   0  0  0  0  0  0  0  0  0  0  0  0
  1 18  1  0  0  0  0
  1 19  1  0  0  0  0
  1 20  1  0  0  0  0
  2  1  1  0  0  0  0
  2 21  1  0  0  0  0
  2 22  1  0  0  0  0
  3  2  1  0  0  0  0
  3 23  1  0  0  0  0
  3 24  1  0  0  0  0
  4  3  1  0  0  0  0
  4 25  1  0  0  0  0
  4 26  1  0  0  0  0
  5  4  1  0  0  0  0
  5 27  1  0  0  0  0
  5 28  1  0  0  0  0
  6  5  1  0  0  0  0
  6 29  1  0  0  0  0
  6 30  1  0  0  0  0
  7  6  1  0  0  0  0
  7 31  1  0  0  0  0
  7 32  1  0  0  0  0
  8  7  1  0  0  0  0
  8 33  1  0  0  0  0
  8 34  1  0  0  0  0
  9  8  1  0  0  0  0
  9 35  1  0  0  0  0
  9 36  1  0  0  0  0
 10  9  1  0  0  0  0
 10 37  1  0  0  0  0
 10 38  1  0  0  0  0
 11 10  1  0  0  0  0
 12 11  2  0  0  0  0
 12 39  1  0  0  0  0
 13 12  1  0  0  0  0
 13 40  1  0  0  0  0
 14 13  2  0  0  0  0
 15 14  1  0  0  0  0
 15 41  1  0  0  0  0
 16 14  1  0  0  0  0
 16 42  1  0  0  0  0
 17 16  2  0  0  0  0
 17 11  1  0  0  0  0
 17 43  1  0  0  0  0
M  CHG  1   9   1
M  END
>  <MOL Chiral Flag>
0

>  <energy>
10.072671461201073

$$$$
