>355.sdf
 OpenBabel10062212583D

 30 32  0  0  0  0  0  0  0  0999 V2000
   -5.7556   -0.8799   -1.7267 O   0  0  0  0  0  0  0  0  0  0  0  0
   -4.5268   -0.5810   -1.2594 C   0  0  0  0  0  0  0  0  0  0  0  0
   -4.3225   -0.4381    0.1184 C   0  0  0  0  0  0  0  0  0  0  0  0
   -3.0531   -0.1148    0.6132 C   0  0  0  0  0  0  0  0  0  0  0  0
   -1.9704    0.0335   -0.2717 C   0  0  0  0  0  0  0  0  0  0  0  0
   -2.1785   -0.1296   -1.6495 C   0  0  0  0  0  0  0  0  0  0  0  0
   -3.4516   -0.4160   -2.1426 C   0  0  0  0  0  0  0  0  0  0  0  0
   -0.6081    0.3155    0.2182 C   0  0  0  0  0  0  0  0  0  0  0  0
   -0.3652    1.2013    1.2779 C   0  0  0  0  0  0  0  0  0  0  0  0
    0.9531    1.4274    1.6908 C   0  0  0  0  0  0  0  0  0  0  0  0
    1.1721    2.2192    2.5899 O   0  0  0  0  0  0  0  0  0  0  0  0
    2.0035    0.7191    1.0629 C   0  0  0  0  0  0  0  0  0  0  0  0
    3.3645    0.8500    1.4420 C   0  0  0  0  0  0  0  0  0  0  0  0
    3.7316    1.6957    2.4276 O   0  0  0  0  0  0  0  0  0  0  0  0
    4.3429    0.0788    0.7890 C   0  0  0  0  0  0  0  0  0  0  0  0
    3.9884   -0.8090   -0.2292 C   0  0  0  0  0  0  0  0  0  0  0  0
    4.9397   -1.5519   -0.8307 O   0  0  0  0  0  0  0  0  0  0  0  0
    2.6510   -0.9246   -0.6173 C   0  0  0  0  0  0  0  0  0  0  0  0
    1.6656   -0.1678    0.0164 C   0  0  0  0  0  0  0  0  0  0  0  0
    0.4050   -0.3090   -0.3711 O   0  0  0  0  0  0  0  0  0  0  0  0
   -5.9258   -0.9811   -2.6745 H   0  0  0  0  0  0  0  0  0  0  0  0
   -5.1468   -0.5827    0.8056 H   0  0  0  0  0  0  0  0  0  0  0  0
   -2.9079   -0.0240    1.6826 H   0  0  0  0  0  0  0  0  0  0  0  0
   -1.3559   -0.0087   -2.3441 H   0  0  0  0  0  0  0  0  0  0  0  0
   -3.5996   -0.5159   -3.2102 H   0  0  0  0  0  0  0  0  0  0  0  0
   -1.1830    1.7319    1.7533 H   0  0  0  0  0  0  0  0  0  0  0  0
    4.6573    1.7935    2.6954 H   0  0  0  0  0  0  0  0  0  0  0  0
    5.3826    0.1646    1.0806 H   0  0  0  0  0  0  0  0  0  0  0  0
    4.7220   -2.1835   -1.5315 H   0  0  0  0  0  0  0  0  0  0  0  0
    2.3716   -1.6128   -1.4052 H   0  0  0  0  0  0  0  0  0  0  0  0
  1 21  1  0  0  0  0
  2  1  1  0  0  0  0
  3  2  2  0  0  0  0
  3 22  1  0  0  0  0
  4  3  1  0  0  0  0
  4 23  1  0  0  0  0
  5  4  2  0  0  0  0
  6  5  1  0  0  0  0
  6 24  1  0  0  0  0
  7  6  2  0  0  0  0
  7  2  1  0  0  0  0
  7 25  1  0  0  0  0
  8  5  1  0  0  0  0
  9  8  2  0  0  0  0
  9 26  1  0  0  0  0
 10  9  1  0  0  0  0
 11 10  2  0  0  0  0
 12 10  1  0  0  0  0
 13 12  2  0  0  0  0
 14 13  1  0  0  0  0
 14 27  1  0  0  0  0
 15 13  1  0  0  0  0
 15 28  1  0  0  0  0
 16 15  2  0  0  0  0
 17 16  1  0  0  0  0
 17 29  1  0  0  0  0
 18 16  1  0  0  0  0
 18 30  1  0  0  0  0
 19 18  2  0  0  0  0
 19 12  1  0  0  0  0
 20 19  1  0  0  0  0
 20  8  1  0  0  0  0
M  END
>  <MOL Chiral Flag>
0

>  <energy>
33.003544033502038

$$$$
