>356.sdf
 OpenBabel10062212583D

 88 91  0  0  0  0  0  0  0  0999 V2000
    2.0757   -0.5378   -2.8822 C   0  0  0  0  0  0  0  0  0  0  0  0
    2.3670   -1.3412   -1.6075 C   0  0  0  0  0  0  0  0  0  0  0  0
    3.6974   -2.0937   -1.7725 C   0  0  0  0  0  0  0  0  0  0  0  0
    1.1869   -2.3015   -1.3098 C   0  0  0  0  0  0  0  0  0  0  0  0
    1.2531   -2.9520    0.0921 C   0  0  1  0  0  0  0  0  0  0  0  0
    1.1831   -1.9223    1.1116 N   0  0  0  0  0  0  0  0  0  0  0  0
    2.1292   -1.7419    2.0672 C   0  0  0  0  0  0  0  0  0  0  0  0
    3.0915   -2.4979    2.1312 O   0  0  0  0  0  0  0  0  0  0  0  0
    1.9781   -0.7141    2.9450 O   0  0  0  0  0  0  0  0  0  0  0  0
    2.8054   -0.2283    3.9562 C   0  0  0  0  0  0  0  0  0  0  0  0
    3.1014    1.2400    3.6249 C   0  0  0  0  0  0  0  0  0  0  0  0
    4.1446   -0.9829    4.1187 C   0  0  0  0  0  0  0  0  0  0  0  0
    2.0262   -0.3067    5.2774 C   0  0  0  0  0  0  0  0  0  0  0  0
    0.2542   -4.0993    0.3349 C   0  0  0  0  0  0  0  0  0  0  0  0
    0.7542   -5.1975    0.5461 O   0  0  0  0  0  0  0  0  0  0  0  0
   -1.1264   -4.0136    0.2999 N   0  0  0  0  0  0  0  0  0  0  0  0
   -1.9286   -5.2234    0.2948 C   0  0  0  0  0  0  0  0  0  0  0  0
   -3.0150   -4.8633   -0.6973 C   0  0  0  0  0  0  0  0  0  0  0  0
   -3.3123   -3.4452   -0.2607 C   0  0  0  0  0  0  0  0  0  0  0  0
   -1.9315   -2.8422   -0.0315 C   0  0  1  0  0  0  0  0  0  0  0  0
   -2.0362   -1.7753    1.0460 C   0  0  0  0  0  0  0  0  0  0  0  0
   -1.5314   -1.9691    2.1421 O   0  0  0  0  0  0  0  0  0  0  0  0
   -2.7084   -0.6112    0.8163 N   0  0  0  0  0  0  0  0  0  0  0  0
   -3.0052    0.5731    1.4617 C   0  0  2  0  0  0  0  0  0  0  0  0
   -3.4694    0.1147   -0.0911 C   0  0  2  0  0  0  0  0  0  0  0  0
   -4.8610   -0.4800   -0.1936 C   0  0  0  0  0  0  0  0  0  0  0  0
   -5.5153   -0.6446    0.8276 O   0  0  0  0  0  0  0  0  0  0  0  0
   -5.3832   -0.8634   -1.3960 O   0  0  0  0  0  0  0  0  0  0  0  0
   -6.1097   -2.0440   -1.5218 C   0  0  0  0  0  0  0  0  0  0  0  0
   -7.5748   -1.8963   -1.7979 C   0  0  0  0  0  0  0  0  0  0  0  0
   -8.1565   -2.6326   -2.8449 C   0  0  0  0  0  0  0  0  0  0  0  0
   -9.5398   -2.6185   -3.0300 C   0  0  0  0  0  0  0  0  0  0  0  0
  -10.3504   -1.8601   -2.1824 C   0  0  0  0  0  0  0  0  0  0  0  0
   -9.7769   -1.1089   -1.1516 C   0  0  0  0  0  0  0  0  0  0  0  0
   -8.3926   -1.1300   -0.9538 C   0  0  0  0  0  0  0  0  0  0  0  0
   -1.7591    1.3884    1.6721 C   0  0  0  0  0  0  0  0  0  0  0  0
   -0.9429    1.0444    2.5153 O   0  0  0  0  0  0  0  0  0  0  0  0
   -1.6057    2.5586    1.0030 O   0  0  0  0  0  0  0  0  0  0  0  0
   -1.1365    3.7238    1.5857 C   0  0  0  0  0  0  0  0  0  0  0  0
    0.3340    3.9697    1.3538 C   0  0  0  0  0  0  0  0  0  0  0  0
    1.1804    4.2226    2.4487 C   0  0  0  0  0  0  0  0  0  0  0  0
    2.5344    4.5056    2.2458 C   0  0  0  0  0  0  0  0  0  0  0  0
    3.0571    4.5324    0.9516 C   0  0  0  0  0  0  0  0  0  0  0  0
    2.2258    4.2769   -0.1434 C   0  0  0  0  0  0  0  0  0  0  0  0
    0.8662    4.0001    0.0536 C   0  0  0  0  0  0  0  0  0  0  0  0
    2.9030    0.1761   -3.0829 H   0  0  0  0  0  0  0  0  0  0  0  0
    1.9571   -1.2106   -3.7580 H   0  0  0  0  0  0  0  0  0  0  0  0
    1.1432    0.0541   -2.7559 H   0  0  0  0  0  0  0  0  0  0  0  0
    2.4650   -0.6069   -0.7779 H   0  0  0  0  0  0  0  0  0  0  0  0
    4.5142   -1.3769   -2.0004 H   0  0  0  0  0  0  0  0  0  0  0  0
    3.9865   -2.6297   -0.8479 H   0  0  0  0  0  0  0  0  0  0  0  0
    3.6267   -2.8266   -2.6055 H   0  0  0  0  0  0  0  0  0  0  0  0
    0.2744   -1.6878   -1.3664 H   0  0  0  0  0  0  0  0  0  0  0  0
    1.1414   -3.0833   -2.0997 H   0  0  0  0  0  0  0  0  0  0  0  0
    2.2368   -3.4619    0.1500 H   0  0  0  0  0  0  0  0  0  0  0  0
    0.4094   -1.2498    1.0801 H   0  0  0  0  0  0  0  0  0  0  0  0
    2.1506    1.8060    3.5329 H   0  0  0  0  0  0  0  0  0  0  0  0
    3.7209    1.7147    4.4153 H   0  0  0  0  0  0  0  0  0  0  0  0
    3.6406    1.3133    2.6554 H   0  0  0  0  0  0  0  0  0  0  0  0
    4.7431   -0.9331    3.1837 H   0  0  0  0  0  0  0  0  0  0  0  0
    4.7510   -0.5253    4.9297 H   0  0  0  0  0  0  0  0  0  0  0  0
    3.9715   -2.0453    4.3944 H   0  0  0  0  0  0  0  0  0  0  0  0
    1.7878   -1.3645    5.5209 H   0  0  0  0  0  0  0  0  0  0  0  0
    2.6174    0.1255    6.1136 H   0  0  0  0  0  0  0  0  0  0  0  0
    1.0689    0.2529    5.1975 H   0  0  0  0  0  0  0  0  0  0  0  0
   -2.3751   -5.3661    1.3045 H   0  0  0  0  0  0  0  0  0  0  0  0
   -1.3948   -6.1448   -0.0247 H   0  0  0  0  0  0  0  0  0  0  0  0
   -2.5733   -4.8337   -1.7198 H   0  0  0  0  0  0  0  0  0  0  0  0
   -3.8957   -5.5407   -0.6988 H   0  0  0  0  0  0  0  0  0  0  0  0
   -3.8732   -3.5177    0.7022 H   0  0  0  0  0  0  0  0  0  0  0  0
   -3.8643   -2.8746   -1.0015 H   0  0  0  0  0  0  0  0  0  0  0  0
   -1.5877   -2.4455   -0.9982 H   0  0  0  0  0  0  0  0  0  0  0  0
   -3.6423    0.3556    2.3448 H   0  0  0  0  0  0  0  0  0  0  0  0
   -2.8466    0.2847   -0.9947 H   0  0  0  0  0  0  0  0  0  0  0  0
   -6.0591   -2.6292   -0.5771 H   0  0  0  0  0  0  0  0  0  0  0  0
   -5.6329   -2.6618   -2.3135 H   0  0  0  0  0  0  0  0  0  0  0  0
   -7.5433   -3.2511   -3.4899 H   0  0  0  0  0  0  0  0  0  0  0  0
   -9.9836   -3.2124   -3.8185 H   0  0  0  0  0  0  0  0  0  0  0  0
  -11.4235   -1.8630   -2.3184 H   0  0  0  0  0  0  0  0  0  0  0  0
  -10.4073   -0.5271   -0.4926 H   0  0  0  0  0  0  0  0  0  0  0  0
   -7.9637   -0.5686   -0.1348 H   0  0  0  0  0  0  0  0  0  0  0  0
   -1.3743    3.7347    2.6733 H   0  0  0  0  0  0  0  0  0  0  0  0
   -1.7027    4.5644    1.1343 H   0  0  0  0  0  0  0  0  0  0  0  0
    0.7887    4.2175    3.4583 H   0  0  0  0  0  0  0  0  0  0  0  0
    3.1766    4.7103    3.0933 H   0  0  0  0  0  0  0  0  0  0  0  0
    4.1055    4.7557    0.7977 H   0  0  0  0  0  0  0  0  0  0  0  0
    2.6347    4.3019   -1.1452 H   0  0  0  0  0  0  0  0  0  0  0  0
    0.2302    3.8157   -0.8025 H   0  0  0  0  0  0  0  0  0  0  0  0
  1 46  1  0  0  0  0
  1 47  1  0  0  0  0
  1 48  1  0  0  0  0
  2  1  1  0  0  0  0
  2 49  1  0  0  0  0
  3  2  1  0  0  0  0
  3 50  1  0  0  0  0
  3 51  1  0  0  0  0
  3 52  1  0  0  0  0
  4  2  1  0  0  0  0
  4 53  1  0  0  0  0
  4 54  1  0  0  0  0
  5  4  1  0  0  0  0
  5 55  1  1  0  0  0
  6  5  1  0  0  0  0
  6 56  1  0  0  0  0
  7  6  1  0  0  0  0
  8  7  2  0  0  0  0
  9  7  1  0  0  0  0
 10  9  1  0  0  0  0
 11 10  1  0  0  0  0
 11 57  1  0  0  0  0
 11 58  1  0  0  0  0
 11 59  1  0  0  0  0
 12 10  1  0  0  0  0
 12 60  1  0  0  0  0
 12 61  1  0  0  0  0
 12 62  1  0  0  0  0
 13 10  1  0  0  0  0
 13 63  1  0  0  0  0
 13 64  1  0  0  0  0
 13 65  1  0  0  0  0
 14  5  1  0  0  0  0
 15 14  2  0  0  0  0
 16 14  1  0  0  0  0
 17 16  1  0  0  0  0
 17 66  1  0  0  0  0
 17 67  1  0  0  0  0
 18 17  1  0  0  0  0
 18 68  1  0  0  0  0
 18 69  1  0  0  0  0
 19 18  1  0  0  0  0
 19 70  1  0  0  0  0
 19 71  1  0  0  0  0
 20 19  1  0  0  0  0
 20 16  1  0  0  0  0
 20 72  1  6  0  0  0
 21 20  1  0  0  0  0
 22 21  2  0  0  0  0
 23 21  1  0  0  0  0
 24 23  1  0  0  0  0
 24 73  1  1  0  0  0
 25 24  1  0  0  0  0
 25 23  1  0  0  0  0
 25 74  1  6  0  0  0
 26 25  1  0  0  0  0
 27 26  2  0  0  0  0
 28 26  1  0  0  0  0
 29 28  1  0  0  0  0
 29 75  1  0  0  0  0
 29 76  1  0  0  0  0
 30 29  1  0  0  0  0
 31 30  2  0  0  0  0
 31 77  1  0  0  0  0
 32 31  1  0  0  0  0
 32 78  1  0  0  0  0
 33 32  2  0  0  0  0
 33 79  1  0  0  0  0
 34 33  1  0  0  0  0
 34 80  1  0  0  0  0
 35 34  2  0  0  0  0
 35 30  1  0  0  0  0
 35 81  1  0  0  0  0
 36 24  1  0  0  0  0
 37 36  2  0  0  0  0
 38 36  1  0  0  0  0
 39 38  1  0  0  0  0
 39 82  1  0  0  0  0
 39 83  1  0  0  0  0
 40 39  1  0  0  0  0
 41 40  2  0  0  0  0
 41 84  1  0  0  0  0
 42 41  1  0  0  0  0
 42 85  1  0  0  0  0
 43 42  2  0  0  0  0
 43 86  1  0  0  0  0
 44 43  1  0  0  0  0
 44 87  1  0  0  0  0
 45 44  2  0  0  0  0
 45 40  1  0  0  0  0
 45 88  1  0  0  0  0
M  END
>  <MOL Chiral Flag>
0

>  <energy>
70.257467853316939

$$$$
