>359.sdf
 OpenBabel10062213003D

 60 64  0  0  0  0  0  0  0  0999 V2000
    2.5008   -4.0774   -0.5426 C   0  0  0  0  0  0  0  0  0  0  0  0
    2.6664   -2.6391   -0.1497 C   0  0  0  0  0  0  0  0  0  0  0  0
    2.3797   -2.2127    1.1570 C   0  0  0  0  0  0  0  0  0  0  0  0
    2.5367   -0.8676    1.5104 C   0  0  0  0  0  0  0  0  0  0  0  0
    2.9756    0.0662    0.5597 C   0  0  0  0  0  0  0  0  0  0  0  0
    3.1633    1.5168    0.9236 C   0  0  0  0  0  0  0  0  0  0  0  0
    2.4403    2.3960   -0.0208 N   0  0  0  0  0  0  0  0  0  0  0  0
    3.0623    3.2347   -0.8884 C   0  0  0  0  0  0  0  0  0  0  0  0
    4.4312    3.5001   -1.0664 C   0  0  0  0  0  0  0  0  0  0  0  0
    4.8039    4.4335   -2.0525 C   0  0  0  0  0  0  0  0  0  0  0  0
    3.8209    5.0740   -2.8380 C   0  0  0  0  0  0  0  0  0  0  0  0
    2.4605    4.7829   -2.6415 C   0  0  0  0  0  0  0  0  0  0  0  0
    2.1277    3.8581   -1.6567 C   0  0  0  0  0  0  0  0  0  0  0  0
    0.9024    3.4491   -1.3128 N   0  0  0  0  0  0  0  0  0  0  0  0
    1.0951    2.5618   -0.2999 C   0  0  0  0  0  0  0  0  0  0  0  0
   -0.0441    1.9628    0.3627 N   0  0  0  0  0  0  0  0  0  0  0  0
   -0.0321    1.4299    1.7193 C   0  0  0  0  0  0  0  0  0  0  0  0
   -0.6774    0.0382    1.7481 C   0  0  0  0  0  0  0  0  0  0  0  0
   -2.0939    0.1100    1.1503 C   0  0  0  0  0  0  0  0  0  0  0  0
   -2.0075    0.6415   -0.2932 C   0  0  0  0  0  0  0  0  0  0  0  0
   -1.3568    2.0341   -0.2795 C   0  0  0  0  0  0  0  0  0  0  0  0
   -2.7706   -1.2421    1.2163 C   0  0  0  0  0  0  0  0  0  0  0  0
   -2.2695   -2.1991    0.6410 O   0  0  0  0  0  0  0  0  0  0  0  0
   -3.9230   -1.3911    1.9318 N   0  0  0  0  0  0  0  0  0  0  0  0
   -4.6003   -2.6664    2.0761 C   0  0  0  0  0  0  0  0  0  0  0  0
   -5.0774   -3.1869    0.7561 C   0  0  0  0  0  0  0  0  0  0  0  0
   -5.9627   -2.5569   -0.1212 C   0  0  0  0  0  0  0  0  0  0  0  0
   -6.2243   -3.3206   -1.2928 C   0  0  0  0  0  0  0  0  0  0  0  0
   -5.5457   -4.5436   -1.3273 C   0  0  0  0  0  0  0  0  0  0  0  0
   -4.6582   -4.6357    0.0703 S   0  0  0  0  0  0  0  0  0  0  0  0
    3.2735   -0.3670   -0.7435 C   0  0  0  0  0  0  0  0  0  0  0  0
    3.1163   -1.7091   -1.0960 C   0  0  0  0  0  0  0  0  0  0  0  0
    2.1393   -4.6953    0.3065 H   0  0  0  0  0  0  0  0  0  0  0  0
    3.4755   -4.4854   -0.8842 H   0  0  0  0  0  0  0  0  0  0  0  0
    1.7656   -4.1550   -1.3713 H   0  0  0  0  0  0  0  0  0  0  0  0
    2.0355   -2.9201    1.9009 H   0  0  0  0  0  0  0  0  0  0  0  0
    2.3161   -0.5568    2.5234 H   0  0  0  0  0  0  0  0  0  0  0  0
    4.2517    1.6876    0.8596 H   0  0  0  0  0  0  0  0  0  0  0  0
    2.9334    1.7604    1.9760 H   0  0  0  0  0  0  0  0  0  0  0  0
    5.1999    3.0249   -0.4778 H   0  0  0  0  0  0  0  0  0  0  0  0
    5.8502    4.6622   -2.2087 H   0  0  0  0  0  0  0  0  0  0  0  0
    4.1160    5.7910   -3.5931 H   0  0  0  0  0  0  0  0  0  0  0  0
    1.6960    5.2658   -3.2362 H   0  0  0  0  0  0  0  0  0  0  0  0
   -0.6478    2.0994    2.3598 H   0  0  0  0  0  0  0  0  0  0  0  0
    0.9465    1.4047    2.1842 H   0  0  0  0  0  0  0  0  0  0  0  0
   -0.7240   -0.3213    2.7994 H   0  0  0  0  0  0  0  0  0  0  0  0
   -0.0678   -0.6726    1.1543 H   0  0  0  0  0  0  0  0  0  0  0  0
   -2.6916    0.8341    1.7490 H   0  0  0  0  0  0  0  0  0  0  0  0
   -3.0250    0.7145   -0.7350 H   0  0  0  0  0  0  0  0  0  0  0  0
   -1.3987   -0.0481   -0.9201 H   0  0  0  0  0  0  0  0  0  0  0  0
   -2.0075    2.7238    0.3016 H   0  0  0  0  0  0  0  0  0  0  0  0
   -1.3044    2.4169   -1.3205 H   0  0  0  0  0  0  0  0  0  0  0  0
   -4.3263   -0.5739    2.4148 H   0  0  0  0  0  0  0  0  0  0  0  0
   -5.4852   -2.5372    2.7364 H   0  0  0  0  0  0  0  0  0  0  0  0
   -3.9160   -3.3988    2.5559 H   0  0  0  0  0  0  0  0  0  0  0  0
   -6.4057   -1.5881    0.0689 H   0  0  0  0  0  0  0  0  0  0  0  0
   -6.8860   -2.9886   -2.0814 H   0  0  0  0  0  0  0  0  0  0  0  0
   -5.5938   -5.2842   -2.1138 H   0  0  0  0  0  0  0  0  0  0  0  0
    3.6254    0.3380   -1.4866 H   0  0  0  0  0  0  0  0  0  0  0  0
    3.3460   -2.0258   -2.1062 H   0  0  0  0  0  0  0  0  0  0  0  0
  1 33  1  0  0  0  0
  1 34  1  0  0  0  0
  1 35  1  0  0  0  0
  2  1  1  0  0  0  0
  3  2  2  0  0  0  0
  3 36  1  0  0  0  0
  4  3  1  0  0  0  0
  4 37  1  0  0  0  0
  5  4  2  0  0  0  0
  6  5  1  0  0  0  0
  6 38  1  0  0  0  0
  6 39  1  0  0  0  0
  7  6  1  0  0  0  0
  8  7  1  0  0  0  0
  9  8  2  0  0  0  0
  9 40  1  0  0  0  0
 10  9  1  0  0  0  0
 10 41  1  0  0  0  0
 11 10  2  0  0  0  0
 11 42  1  0  0  0  0
 12 11  1  0  0  0  0
 12 43  1  0  0  0  0
 13 12  2  0  0  0  0
 13  8  1  0  0  0  0
 14 13  1  0  0  0  0
 15 14  2  0  0  0  0
 15  7  1  0  0  0  0
 16 15  1  0  0  0  0
 17 16  1  0  0  0  0
 17 44  1  0  0  0  0
 17 45  1  0  0  0  0
 18 17  1  0  0  0  0
 18 46  1  0  0  0  0
 18 47  1  0  0  0  0
 19 18  1  0  0  0  0
 19 48  1  0  0  0  0
 20 19  1  0  0  0  0
 20 49  1  0  0  0  0
 20 50  1  0  0  0  0
 21 20  1  0  0  0  0
 21 16  1  0  0  0  0
 21 51  1  0  0  0  0
 21 52  1  0  0  0  0
 22 19  1  0  0  0  0
 23 22  2  0  0  0  0
 24 22  1  0  0  0  0
 24 53  1  0  0  0  0
 25 24  1  0  0  0  0
 25 54  1  0  0  0  0
 25 55  1  0  0  0  0
 26 25  1  0  0  0  0
 27 26  2  0  0  0  0
 27 56  1  0  0  0  0
 28 27  1  0  0  0  0
 28 57  1  0  0  0  0
 29 28  2  0  0  0  0
 29 58  1  0  0  0  0
 30 29  1  0  0  0  0
 30 26  1  0  0  0  0
 31  5  1  0  0  0  0
 31 59  1  0  0  0  0
 32 31  2  0  0  0  0
 32  2  1  0  0  0  0
 32 60  1  0  0  0  0
M  END
>  <MOL Chiral Flag>
0

>  <energy>
2.9194282038028092

$$$$
