>363.sdf
 OpenBabel10062213023D

104110  0  0  0  0  0  0  0  0999 V2000
   -5.3785   -0.2146    2.9237 C   0  0  0  0  0  0  0  0  0  0  0  0
   -4.8155   -1.6266    2.6349 C   0  0  0  0  0  0  0  0  0  0  0  0
   -5.1512   -2.5150    3.8574 C   0  0  0  0  0  0  0  0  0  0  0  0
   -5.4650   -2.2541    1.3683 C   0  0  0  0  0  0  0  0  0  0  0  0
   -5.0632   -1.5147    0.0756 C   0  0  0  0  0  0  0  0  0  0  0  0
   -3.5213   -1.4470   -0.1465 C   0  0  2  0  0  0  0  0  0  0  0  0
   -2.9065   -2.8864   -0.3897 C   0  0  0  0  0  0  0  0  0  0  0  0
   -1.3613   -2.8800   -0.6081 C   0  0  0  0  0  0  0  0  0  0  0  0
   -0.4814   -2.1018    0.4585 C   0  0  2  0  0  0  0  0  0  0  0  0
   -0.3636   -3.0025    1.7226 C   0  0  0  0  0  0  0  0  0  0  0  0
   -1.3002   -0.8177    0.8153 C   0  0  0  0  0  0  0  0  0  0  0  0
   -0.7702    0.4221    0.7201 C   0  0  0  0  0  0  0  0  0  0  0  0
    0.6380    0.7249    0.3559 C   0  0  0  0  0  0  0  0  0  0  0  0
    1.5932   -0.4560    0.5870 C   0  0  2  0  0  0  0  0  0  0  0  0
    3.1361   -0.0620    0.3374 C   0  0  1  0  0  0  0  0  0  0  0  0
    3.4272    0.4067   -1.1320 C   0  0  0  0  0  0  0  0  0  0  0  0
    3.5120    1.1430    1.2602 C   0  0  0  0  0  0  0  0  0  0  0  0
    5.0227    1.4345    1.3070 C   0  0  0  0  0  0  0  0  0  0  0  0
    5.7867    0.2043    1.8158 C   0  0  2  0  0  0  0  0  0  0  0  0
    7.1527    0.5079    1.9742 O   0  0  0  0  0  0  0  0  0  0  0  0
    5.5553   -1.0979    0.9617 C   0  0  1  0  0  0  0  0  0  0  0  0
    6.3019   -1.0575   -0.3978 C   0  0  0  0  0  0  0  0  0  0  0  0
    6.1525   -2.2941    1.7779 C   0  0  0  0  0  0  0  0  0  0  0  0
    7.5269   -2.1178    2.0170 O   0  0  0  0  0  0  0  0  0  0  0  0
    3.9863   -1.3108    0.7993 C   0  0  2  0  0  0  0  0  0  0  0  0
    3.5628   -2.5635   -0.0315 C   0  0  0  0  0  0  0  0  0  0  0  0
    2.0787   -2.9018    0.2176 C   0  0  0  0  0  0  0  0  0  0  0  0
    1.0430   -1.7625   -0.1094 C   0  0  1  0  0  0  0  0  0  0  0  0
    1.0037   -1.6121   -1.6620 C   0  0  0  0  0  0  0  0  0  0  0  0
   -2.8208   -0.8871    1.1289 C   0  0  2  0  0  0  0  0  0  0  0  0
   -3.2738   -1.6066    2.4384 C   0  0  0  0  0  0  0  0  0  0  0  0
   -3.2397   -0.4420   -1.3118 C   0  0  0  0  0  0  0  0  0  0  0  0
   -2.6855   -0.8162   -2.3333 O   0  0  0  0  0  0  0  0  0  0  0  0
   -3.4897    0.8941   -1.1295 N   0  0  0  0  0  0  0  0  0  0  0  0
   -2.8445    1.9227   -1.8806 C   0  0  0  0  0  0  0  0  0  0  0  0
   -2.7736    3.2345   -1.4830 C   0  0  0  0  0  0  0  0  0  0  0  0
   -1.8669    3.8281   -2.2775 N   0  0  0  0  0  0  0  0  0  0  0  0
   -1.3088    5.1681   -2.0604 C   0  0  0  0  0  0  0  0  0  0  0  0
   -1.2013    6.0576   -3.2907 C   0  0  0  0  0  0  0  0  0  0  0  0
    0.0993    6.4560   -3.6739 C   0  0  0  0  0  0  0  0  0  0  0  0
    0.3051    7.3187   -4.7462 C   0  0  0  0  0  0  0  0  0  0  0  0
   -0.7767    7.8043   -5.4664 C   0  0  0  0  0  0  0  0  0  0  0  0
   -2.0738    7.4293   -5.1204 C   0  0  0  0  0  0  0  0  0  0  0  0
   -2.3225    6.5585   -4.0316 C   0  0  0  0  0  0  0  0  0  0  0  0
   -3.6849    6.2411   -3.7032 N   0  0  0  0  0  0  0  0  0  0  0  0
   -4.5768    6.6776   -4.3664 O   0  0  0  0  0  0  0  0  0  0  0  0
   -3.9497    5.5760   -2.7506 O   0  0  0  0  0  0  0  0  0  0  0  0
   -1.4134    2.9255   -3.1379 N   0  0  0  0  0  0  0  0  0  0  0  0
   -1.9961    1.7491   -2.9170 N   0  0  0  0  0  0  0  0  0  0  0  0
   -4.9156    0.2015    3.8445 H   0  0  0  0  0  0  0  0  0  0  0  0
   -6.4770   -0.2684    3.0856 H   0  0  0  0  0  0  0  0  0  0  0  0
   -5.2012    0.5075    2.1061 H   0  0  0  0  0  0  0  0  0  0  0  0
   -4.7754   -3.5519    3.7125 H   0  0  0  0  0  0  0  0  0  0  0  0
   -6.2492   -2.5733    4.0178 H   0  0  0  0  0  0  0  0  0  0  0  0
   -4.6818   -2.1102    4.7802 H   0  0  0  0  0  0  0  0  0  0  0  0
   -6.5726   -2.2547    1.4676 H   0  0  0  0  0  0  0  0  0  0  0  0
   -5.1564   -3.3168    1.2781 H   0  0  0  0  0  0  0  0  0  0  0  0
   -5.5454   -2.0016   -0.7994 H   0  0  0  0  0  0  0  0  0  0  0  0
   -5.4854   -0.4922    0.1367 H   0  0  0  0  0  0  0  0  0  0  0  0
   -3.3893   -3.3506   -1.2774 H   0  0  0  0  0  0  0  0  0  0  0  0
   -3.1132   -3.5626    0.4583 H   0  0  0  0  0  0  0  0  0  0  0  0
   -1.2881   -2.3979   -1.5797 H   0  0  0  0  0  0  0  0  0  0  0  0
   -0.9758   -3.9111   -0.7616 H   0  0  0  0  0  0  0  0  0  0  0  0
    0.1615   -2.4764    2.5472 H   0  0  0  0  0  0  0  0  0  0  0  0
   -1.2802   -3.4249    2.1040 H   0  0  0  0  0  0  0  0  0  0  0  0
    0.1508   -3.9545    1.4863 H   0  0  0  0  0  0  0  0  0  0  0  0
   -1.4074    1.2889    0.8735 H   0  0  0  0  0  0  0  0  0  0  0  0
    0.9294    1.5533    1.0275 H   0  0  0  0  0  0  0  0  0  0  0  0
    0.6395    1.1150   -0.6807 H   0  0  0  0  0  0  0  0  0  0  0  0
    1.5211   -0.6706    1.6782 H   0  0  0  0  0  0  0  0  0  0  0  0
    2.6622    1.1163   -1.4971 H   0  0  0  0  0  0  0  0  0  0  0  0
    4.3518    0.9766   -1.2548 H   0  0  0  0  0  0  0  0  0  0  0  0
    3.5843   -0.3942   -1.8593 H   0  0  0  0  0  0  0  0  0  0  0  0
    3.0087    2.0750    0.9268 H   0  0  0  0  0  0  0  0  0  0  0  0
    3.1832    0.9278    2.3006 H   0  0  0  0  0  0  0  0  0  0  0  0
    5.4271    1.7622    0.3318 H   0  0  0  0  0  0  0  0  0  0  0  0
    5.1932    2.2829    2.0049 H   0  0  0  0  0  0  0  0  0  0  0  0
    5.3779    0.0191    2.8347 H   0  0  0  0  0  0  0  0  0  0  0  0
    7.4813    0.9099    1.1280 H   0  0  0  0  0  0  0  0  0  0  0  0
    6.0323   -0.2122   -1.0384 H   0  0  0  0  0  0  0  0  0  0  0  0
    6.1268   -1.9955   -0.9651 H   0  0  0  0  0  0  0  0  0  0  0  0
    7.3984   -0.9782   -0.2463 H   0  0  0  0  0  0  0  0  0  0  0  0
    5.6040   -2.3748    2.7480 H   0  0  0  0  0  0  0  0  0  0  0  0
    6.0330   -3.2590    1.2500 H   0  0  0  0  0  0  0  0  0  0  0  0
    7.7103   -2.4285    2.9420 H   0  0  0  0  0  0  0  0  0  0  0  0
    3.6587   -1.5054    1.8475 H   0  0  0  0  0  0  0  0  0  0  0  0
    4.1252   -3.4571    0.2991 H   0  0  0  0  0  0  0  0  0  0  0  0
    3.7756   -2.4432   -1.1092 H   0  0  0  0  0  0  0  0  0  0  0  0
    2.0805   -3.1109    1.3062 H   0  0  0  0  0  0  0  0  0  0  0  0
    1.8031   -3.8405   -0.3108 H   0  0  0  0  0  0  0  0  0  0  0  0
    0.3138   -0.8057   -1.9844 H   0  0  0  0  0  0  0  0  0  0  0  0
    0.7134   -2.5711   -2.1386 H   0  0  0  0  0  0  0  0  0  0  0  0
    1.9542   -1.4646   -2.1528 H   0  0  0  0  0  0  0  0  0  0  0  0
   -3.1779    0.1386    1.3162 H   0  0  0  0  0  0  0  0  0  0  0  0
   -2.7721   -1.1463    3.3181 H   0  0  0  0  0  0  0  0  0  0  0  0
   -3.0302   -2.6604    2.4247 H   0  0  0  0  0  0  0  0  0  0  0  0
   -3.9967    1.2016   -0.2894 H   0  0  0  0  0  0  0  0  0  0  0  0
   -3.2517    3.6906   -0.6255 H   0  0  0  0  0  0  0  0  0  0  0  0
   -0.2923    5.0082   -1.6397 H   0  0  0  0  0  0  0  0  0  0  0  0
   -1.8770    5.7014   -1.2681 H   0  0  0  0  0  0  0  0  0  0  0  0
    0.9662    6.1068   -3.1257 H   0  0  0  0  0  0  0  0  0  0  0  0
    1.3110    7.6190   -5.0130 H   0  0  0  0  0  0  0  0  0  0  0  0
   -0.6111    8.4826   -6.2940 H   0  0  0  0  0  0  0  0  0  0  0  0
   -2.8934    7.8362   -5.6984 H   0  0  0  0  0  0  0  0  0  0  0  0
  1 50  1  0  0  0  0
  1 51  1  0  0  0  0
  1 52  1  0  0  0  0
  2  1  1  0  0  0  0
  3  2  1  0  0  0  0
  3 53  1  0  0  0  0
  3 54  1  0  0  0  0
  3 55  1  0  0  0  0
  4  2  1  0  0  0  0
  4 56  1  0  0  0  0
  4 57  1  0  0  0  0
  5  4  1  0  0  0  0
  5 58  1  0  0  0  0
  5 59  1  0  0  0  0
  6  5  1  0  0  0  0
  6 32  1  6  0  0  0
  7  6  1  0  0  0  0
  7 60  1  0  0  0  0
  7 61  1  0  0  0  0
  8  7  1  0  0  0  0
  8 62  1  0  0  0  0
  8 63  1  0  0  0  0
  9  8  1  0  0  0  0
  9 10  1  1  0  0  0
 10 64  1  0  0  0  0
 10 65  1  0  0  0  0
 10 66  1  0  0  0  0
 11  9  1  0  0  0  0
 12 11  2  0  0  0  0
 12 67  1  0  0  0  0
 13 12  1  0  0  0  0
 13 68  1  0  0  0  0
 13 69  1  0  0  0  0
 14 13  1  0  0  0  0
 14 70  1  1  0  0  0
 15 14  1  0  0  0  0
 15 16  1  6  0  0  0
 16 71  1  0  0  0  0
 16 72  1  0  0  0  0
 16 73  1  0  0  0  0
 17 15  1  0  0  0  0
 17 74  1  0  0  0  0
 17 75  1  0  0  0  0
 18 17  1  0  0  0  0
 18 76  1  0  0  0  0
 18 77  1  0  0  0  0
 19 18  1  0  0  0  0
 19 78  1  1  0  0  0
 20 19  1  0  0  0  0
 20 79  1  0  0  0  0
 21 19  1  0  0  0  0
 21 22  1  6  0  0  0
 22 80  1  0  0  0  0
 22 81  1  0  0  0  0
 22 82  1  0  0  0  0
 23 21  1  0  0  0  0
 23 83  1  0  0  0  0
 23 84  1  0  0  0  0
 24 23  1  0  0  0  0
 24 85  1  0  0  0  0
 25 21  1  0  0  0  0
 25 15  1  0  0  0  0
 25 86  1  1  0  0  0
 26 25  1  0  0  0  0
 26 87  1  0  0  0  0
 26 88  1  0  0  0  0
 27 26  1  0  0  0  0
 27 89  1  0  0  0  0
 27 90  1  0  0  0  0
 28 27  1  0  0  0  0
 28  9  1  0  0  0  0
 28 14  1  0  0  0  0
 28 29  1  6  0  0  0
 29 91  1  0  0  0  0
 29 92  1  0  0  0  0
 29 93  1  0  0  0  0
 30 11  1  0  0  0  0
 30  6  1  0  0  0  0
 30 94  1  1  0  0  0
 31 30  1  0  0  0  0
 31  2  1  0  0  0  0
 31 95  1  0  0  0  0
 31 96  1  0  0  0  0
 33 32  2  0  0  0  0
 34 32  1  0  0  0  0
 34 97  1  0  0  0  0
 35 34  1  0  0  0  0
 36 35  2  0  0  0  0
 36 98  1  0  0  0  0
 37 36  1  0  0  0  0
 38 37  1  0  0  0  0
 38 99  1  0  0  0  0
 38100  1  0  0  0  0
 39 38  1  0  0  0  0
 40 39  2  0  0  0  0
 40101  1  0  0  0  0
 41 40  1  0  0  0  0
 41102  1  0  0  0  0
 42 41  2  0  0  0  0
 42103  1  0  0  0  0
 43 42  1  0  0  0  0
 43104  1  0  0  0  0
 44 43  2  0  0  0  0
 44 39  1  0  0  0  0
 45 44  1  0  0  0  0
 46 45  2  0  0  0  0
 47 45  2  0  0  0  0
 48 37  1  0  0  0  0
 49 48  2  0  0  0  0
 49 35  1  0  0  0  0
M  END
>  <MOL Chiral Flag>
0

>  <energy>
228.21237519532531

$$$$
