>364.sdf
 OpenBabel10042216533D

 54 58  0  0  0  0  0  0  0  0999 V2000
    5.4583   -2.3281   -0.0279 O   0  5  0  0  0  0  0  0  0  0  0  0
    5.6061   -1.4272   -0.8676 N   0  3  0  0  0  0  0  0  0  0  0  0
    6.3384   -1.5027   -1.8621 O   0  0  0  0  0  0  0  0  0  0  0  0
    4.8451   -0.1892   -0.6698 C   0  0  0  0  0  0  0  0  0  0  0  0
    5.0187    0.8844   -1.5464 C   0  0  0  0  0  0  0  0  0  0  0  0
    4.2398    2.0284   -1.3751 C   0  0  0  0  0  0  0  0  0  0  0  0
    3.2754    2.0963   -0.3573 C   0  0  0  0  0  0  0  0  0  0  0  0
    3.0879    1.0097    0.5028 C   0  0  0  0  0  0  0  0  0  0  0  0
    2.0495    0.8848    1.4451 N   0  0  0  0  0  0  0  0  0  0  0  0
    0.9327    1.6995    1.6170 C   0  0  0  0  0  0  0  0  0  0  0  0
    0.8813    2.8901    1.3319 O   0  0  0  0  0  0  0  0  0  0  0  0
   -0.2141    0.8925    2.2693 C   0  0  0  0  0  0  0  0  0  0  0  0
   -1.5921    1.3045    1.9149 N   0  0  0  0  0  0  0  0  0  0  0  0
   -2.5560    0.5850    2.8105 C   0  0  0  0  0  0  0  0  0  0  0  0
   -2.6288   -0.9706    2.6569 C   0  0  0  0  0  0  0  0  0  0  0  0
   -2.5166   -1.3645    1.2192 C   0  0  0  0  0  0  0  0  0  0  0  0
   -2.2398   -0.4172    0.2560 C   0  0  0  0  0  0  0  0  0  0  0  0
   -2.3076   -1.0300   -0.9665 N   0  0  0  0  0  0  0  0  0  0  0  0
   -2.4777   -2.3856   -0.8023 C   0  0  0  0  0  0  0  0  0  0  0  0
   -2.5287   -3.3995   -1.7679 C   0  0  0  0  0  0  0  0  0  0  0  0
   -2.7207   -4.7065   -1.3207 C   0  0  0  0  0  0  0  0  0  0  0  0
   -2.8455   -4.9867    0.0379 C   0  0  0  0  0  0  0  0  0  0  0  0
   -2.7976   -3.9567    0.9906 C   0  0  0  0  0  0  0  0  0  0  0  0
   -2.6126   -2.6263    0.5668 C   0  0  0  0  0  0  0  0  0  0  0  0
   -2.0089    1.0557    0.4992 C   0  0  2  0  0  0  0  0  0  0  0  0
   -1.2106    1.7737   -0.5804 C   0  0  0  0  0  0  0  0  0  0  0  0
   -1.5178    3.1116   -0.8852 C   0  0  0  0  0  0  0  0  0  0  0  0
   -0.8450    3.7898   -1.9057 C   0  0  0  0  0  0  0  0  0  0  0  0
    0.1429    3.1430   -2.6443 C   0  0  0  0  0  0  0  0  0  0  0  0
    0.4768    1.8259   -2.3410 C   0  0  0  0  0  0  0  0  0  0  0  0
   -0.1810    1.1536   -1.3096 C   0  0  0  0  0  0  0  0  0  0  0  0
    3.9061   -0.1189    0.3651 C   0  0  0  0  0  0  0  0  0  0  0  0
    5.7376    0.8418   -2.3624 H   0  0  0  0  0  0  0  0  0  0  0  0
    4.3548    2.8669   -2.0591 H   0  0  0  0  0  0  0  0  0  0  0  0
    2.6597    2.9910   -0.2836 H   0  0  0  0  0  0  0  0  0  0  0  0
    2.0337    0.0130    1.9617 H   0  0  0  0  0  0  0  0  0  0  0  0
   -0.0636   -0.1726    2.0594 H   0  0  0  0  0  0  0  0  0  0  0  0
   -0.0697    1.0285    3.3499 H   0  0  0  0  0  0  0  0  0  0  0  0
   -2.3322    0.8329    3.8568 H   0  0  0  0  0  0  0  0  0  0  0  0
   -3.5587    1.0054    2.6317 H   0  0  0  0  0  0  0  0  0  0  0  0
   -1.8244   -1.4490    3.2329 H   0  0  0  0  0  0  0  0  0  0  0  0
   -3.5858   -1.3230    3.0609 H   0  0  0  0  0  0  0  0  0  0  0  0
   -2.1824   -0.5749   -1.8599 H   0  0  0  0  0  0  0  0  0  0  0  0
   -2.4287   -3.1849   -2.8287 H   0  0  0  0  0  0  0  0  0  0  0  0
   -2.7712   -5.5138   -2.0465 H   0  0  0  0  0  0  0  0  0  0  0  0
   -2.9830   -6.0161    0.3624 H   0  0  0  0  0  0  0  0  0  0  0  0
   -2.8950   -4.1948    2.0439 H   0  0  0  0  0  0  0  0  0  0  0  0
   -3.0186    1.4929    0.4142 H   0  0  0  0  0  0  0  0  0  0  0  0
   -2.2725    3.6393   -0.3079 H   0  0  0  0  0  0  0  0  0  0  0  0
   -1.0863    4.8279   -2.1151 H   0  0  0  0  0  0  0  0  0  0  0  0
    0.6663    3.6707   -3.4383 H   0  0  0  0  0  0  0  0  0  0  0  0
    1.2665    1.3240   -2.8920 H   0  0  0  0  0  0  0  0  0  0  0  0
    0.1298    0.1411   -1.0685 H   0  0  0  0  0  0  0  0  0  0  0  0
    3.7657   -0.9650    1.0348 H   0  0  0  0  0  0  0  0  0  0  0  0
  2  1  1  0  0  0  0
  3  2  2  0  0  0  0
  4  2  1  0  0  0  0
  5  4  2  0  0  0  0
  5 33  1  0  0  0  0
  6  5  1  0  0  0  0
  6 34  1  0  0  0  0
  7  6  2  0  0  0  0
  7 35  1  0  0  0  0
  8  7  1  0  0  0  0
  9  8  1  0  0  0  0
  9 36  1  0  0  0  0
 10  9  1  0  0  0  0
 11 10  2  0  0  0  0
 12 10  1  0  0  0  0
 12 37  1  0  0  0  0
 12 38  1  0  0  0  0
 13 12  1  0  0  0  0
 14 13  1  0  0  0  0
 14 39  1  0  0  0  0
 14 40  1  0  0  0  0
 15 14  1  0  0  0  0
 15 41  1  0  0  0  0
 15 42  1  0  0  0  0
 16 15  1  0  0  0  0
 17 16  2  0  0  0  0
 18 17  1  0  0  0  0
 18 43  1  0  0  0  0
 19 18  1  0  0  0  0
 20 19  2  0  0  0  0
 20 44  1  0  0  0  0
 21 20  1  0  0  0  0
 21 45  1  0  0  0  0
 22 21  2  0  0  0  0
 22 46  1  0  0  0  0
 23 22  1  0  0  0  0
 23 47  1  0  0  0  0
 24 23  2  0  0  0  0
 24 16  1  0  0  0  0
 24 19  1  0  0  0  0
 25 17  1  0  0  0  0
 25 13  1  0  0  0  0
 25 48  1  6  0  0  0
 26 25  1  0  0  0  0
 27 26  2  0  0  0  0
 27 49  1  0  0  0  0
 28 27  1  0  0  0  0
 28 50  1  0  0  0  0
 29 28  2  0  0  0  0
 29 51  1  0  0  0  0
 30 29  1  0  0  0  0
 30 52  1  0  0  0  0
 31 30  2  0  0  0  0
 31 26  1  0  0  0  0
 31 53  1  0  0  0  0
 32  8  2  0  0  0  0
 32  4  1  0  0  0  0
 32 54  1  0  0  0  0
M  CHG  2   1  -1   2   1
M  END
>  <energy>
129.24622695061609

$$$$
