>366.sdf
 OpenBabel10062213073D

 27 28  0  0  0  0  0  0  0  0999 V2000
   -5.4996    0.5881   -1.1919 N   0  0  0  0  0  0  0  0  0  0  0  0
   -4.3752   -0.1784   -0.7841 C   0  0  0  0  0  0  0  0  0  0  0  0
   -4.4776   -1.6155   -0.7152 S   0  0  0  0  0  0  0  0  0  0  0  0
   -3.1445    0.4834   -0.4955 N   0  0  0  0  0  0  0  0  0  0  0  0
   -1.9987   -0.2311   -0.2089 N   0  0  0  0  0  0  0  0  0  0  0  0
   -0.8470    0.3441   -0.1642 C   0  0  0  0  0  0  0  0  0  0  0  0
    0.3927   -0.4567    0.0740 C   0  0  0  0  0  0  0  0  0  0  0  0
    0.2606   -1.8095    0.4490 C   0  0  0  0  0  0  0  0  0  0  0  0
    1.3802   -2.6096    0.6609 C   0  0  0  0  0  0  0  0  0  0  0  0
    2.6602   -2.0915    0.4966 C   0  0  0  0  0  0  0  0  0  0  0  0
    3.7310   -2.9022    0.6997 F   0  0  0  0  0  0  0  0  0  0  0  0
    2.8369   -0.7507    0.1202 C   0  0  0  0  0  0  0  0  0  0  0  0
    4.1343   -0.2382   -0.0587 C   0  0  0  0  0  0  0  0  0  0  0  0
    4.3227    1.0881   -0.4406 C   0  0  0  0  0  0  0  0  0  0  0  0
    3.2257    1.9194   -0.6452 C   0  0  0  0  0  0  0  0  0  0  0  0
    1.9281    1.4339   -0.4744 C   0  0  0  0  0  0  0  0  0  0  0  0
    1.7040    0.0887   -0.0898 C   0  0  0  0  0  0  0  0  0  0  0  0
   -6.3915    0.1342   -1.4426 H   0  0  0  0  0  0  0  0  0  0  0  0
   -5.4270    1.6129   -1.2645 H   0  0  0  0  0  0  0  0  0  0  0  0
   -3.1031    1.5107   -0.5801 H   0  0  0  0  0  0  0  0  0  0  0  0
   -0.7941    1.4031   -0.3680 H   0  0  0  0  0  0  0  0  0  0  0  0
   -0.7185   -2.2526    0.5817 H   0  0  0  0  0  0  0  0  0  0  0  0
    1.2524   -3.6451    0.9500 H   0  0  0  0  0  0  0  0  0  0  0  0
    5.0036   -0.8666    0.0916 H   0  0  0  0  0  0  0  0  0  0  0  0
    5.3244    1.4733   -0.5807 H   0  0  0  0  0  0  0  0  0  0  0  0
    3.3797    2.9489   -0.9427 H   0  0  0  0  0  0  0  0  0  0  0  0
    1.1237    2.1248   -0.6529 H   0  0  0  0  0  0  0  0  0  0  0  0
  1 18  1  0  0  0  0
  1 19  1  0  0  0  0
  2  1  1  0  0  0  0
  3  2  2  0  0  0  0
  4  2  1  0  0  0  0
  4 20  1  0  0  0  0
  5  4  1  0  0  0  0
  6  5  2  0  0  0  0
  6 21  1  0  0  0  0
  7  6  1  0  0  0  0
  8  7  2  0  0  0  0
  8 22  1  0  0  0  0
  9  8  1  0  0  0  0
  9 23  1  0  0  0  0
 10  9  2  0  0  0  0
 11 10  1  0  0  0  0
 12 10  1  0  0  0  0
 13 12  2  0  0  0  0
 13 24  1  0  0  0  0
 14 13  1  0  0  0  0
 14 25  1  0  0  0  0
 15 14  2  0  0  0  0
 15 26  1  0  0  0  0
 16 15  1  0  0  0  0
 16 27  1  0  0  0  0
 17 16  2  0  0  0  0
 17  7  1  0  0  0  0
 17 12  1  0  0  0  0
M  END
>  <MOL Chiral Flag>
0

>  <energy>
30.720955036680255

$$$$
