>367.sdf
 OpenBabel10062213073D

 73 76  0  0  0  0  0  0  0  0999 V2000
    1.3827    1.1419   -9.6358 C   0  0  0  0  0  0  0  0  0  0  0  0
    2.5794    1.3763   -8.9903 O   0  0  0  0  0  0  0  0  0  0  0  0
    2.8636    1.0167   -7.7103 C   0  0  0  0  0  0  0  0  0  0  0  0
    1.9373    0.3339   -6.8932 C   0  0  0  0  0  0  0  0  0  0  0  0
    2.2761   -0.0110   -5.5806 C   0  0  0  0  0  0  0  0  0  0  0  0
    3.5381    0.3206   -5.0645 C   0  0  0  0  0  0  0  0  0  0  0  0
    3.8979   -0.0428   -3.6482 C   0  0  0  0  0  0  0  0  0  0  0  0
    2.9934    0.6207   -2.7248 N   0  0  0  0  0  0  0  0  0  0  0  0
    2.2354   -0.0516   -1.8140 C   0  0  0  0  0  0  0  0  0  0  0  0
    2.2969   -1.2700   -1.7343 O   0  0  0  0  0  0  0  0  0  0  0  0
    1.3165    0.7272   -0.8983 C   0  0  0  0  0  0  0  0  0  0  0  0
    0.6612   -0.1117    0.1310 N   0  0  0  0  0  0  0  0  0  0  0  0
   -0.8109   -0.3027    0.1321 C   0  0  1  0  0  0  0  0  0  0  0  0
   -1.5487    0.4264   -0.9881 C   0  0  0  0  0  0  0  0  0  0  0  0
   -1.3722    0.0708   -2.1460 O   0  0  0  0  0  0  0  0  0  0  0  0
   -2.4171    1.4421   -0.6935 N   0  0  0  0  0  0  0  0  0  0  0  0
   -3.1898    2.1877   -1.6947 C   0  0  0  0  0  0  0  0  0  0  0  0
   -4.0466    3.2500   -0.9725 C   0  0  0  0  0  0  0  0  0  0  0  0
   -2.2493    2.9172   -2.6780 C   0  0  0  0  0  0  0  0  0  0  0  0
   -4.1423    1.2444   -2.4606 C   0  0  0  0  0  0  0  0  0  0  0  0
   -1.2453   -1.7715    0.0287 C   0  0  0  0  0  0  0  0  0  0  0  0
   -2.6103   -2.0855    0.1943 C   0  0  0  0  0  0  0  0  0  0  0  0
   -3.0536   -3.4077    0.1121 C   0  0  0  0  0  0  0  0  0  0  0  0
   -2.1447   -4.4372   -0.1386 C   0  0  0  0  0  0  0  0  0  0  0  0
   -2.7038   -6.0966   -0.2406 Cl  0  0  0  0  0  0  0  0  0  0  0  0
   -0.7901   -4.1439   -0.3090 C   0  0  0  0  0  0  0  0  0  0  0  0
   -0.3392   -2.8231   -0.2279 C   0  0  0  0  0  0  0  0  0  0  0  0
    1.4807   -0.6231    1.1366 C   0  0  0  0  0  0  0  0  0  0  0  0
    2.6882   -0.4357    1.0483 O   0  0  0  0  0  0  0  0  0  0  0  0
    1.0387   -1.3829    2.3668 C   0  0  0  0  0  0  0  0  0  0  0  0
   -0.2423   -1.6359    2.8939 C   0  0  0  0  0  0  0  0  0  0  0  0
   -0.0405   -2.3594    4.0469 C   0  0  0  0  0  0  0  0  0  0  0  0
   -0.9516   -2.8736    4.9669 C   0  0  0  0  0  0  0  0  0  0  0  0
   -0.4441   -3.5790    6.0749 C   0  0  0  0  0  0  0  0  0  0  0  0
    0.9513   -3.7494    6.2325 C   0  0  0  0  0  0  0  0  0  0  0  0
    1.8423   -3.2147    5.2827 C   0  0  0  0  0  0  0  0  0  0  0  0
    1.3029   -2.5235    4.1997 C   0  0  0  0  0  0  0  0  0  0  0  0
    1.9667   -1.9362    3.1939 N   0  0  0  0  0  0  0  0  0  0  0  0
    4.4594    0.9971   -5.8790 C   0  0  0  0  0  0  0  0  0  0  0  0
    4.1221    1.3405   -7.1906 C   0  0  0  0  0  0  0  0  0  0  0  0
    0.5522    1.6531   -9.1036 H   0  0  0  0  0  0  0  0  0  0  0  0
    1.1856    0.0505   -9.6982 H   0  0  0  0  0  0  0  0  0  0  0  0
    1.4430    1.5483  -10.6663 H   0  0  0  0  0  0  0  0  0  0  0  0
    0.9566    0.0685   -7.2637 H   0  0  0  0  0  0  0  0  0  0  0  0
    1.5552   -0.5334   -4.9635 H   0  0  0  0  0  0  0  0  0  0  0  0
    4.9341    0.2854   -3.4162 H   0  0  0  0  0  0  0  0  0  0  0  0
    3.8695   -1.1487   -3.5434 H   0  0  0  0  0  0  0  0  0  0  0  0
    2.9376    1.6506   -2.7562 H   0  0  0  0  0  0  0  0  0  0  0  0
    0.6210    1.2795   -1.5507 H   0  0  0  0  0  0  0  0  0  0  0  0
    1.8995    1.5210   -0.3812 H   0  0  0  0  0  0  0  0  0  0  0  0
   -1.1711    0.1340    1.0820 H   0  0  0  0  0  0  0  0  0  0  0  0
   -2.5371    1.6993    0.2988 H   0  0  0  0  0  0  0  0  0  0  0  0
   -3.3990    3.9547   -0.4071 H   0  0  0  0  0  0  0  0  0  0  0  0
   -4.7428    2.7665   -0.2533 H   0  0  0  0  0  0  0  0  0  0  0  0
   -4.6493    3.8374   -1.6990 H   0  0  0  0  0  0  0  0  0  0  0  0
   -1.5692    3.6002   -2.1250 H   0  0  0  0  0  0  0  0  0  0  0  0
   -2.8368    3.5195   -3.4044 H   0  0  0  0  0  0  0  0  0  0  0  0
   -1.6280    2.2114   -3.2640 H   0  0  0  0  0  0  0  0  0  0  0  0
   -4.8222    0.7253   -1.7510 H   0  0  0  0  0  0  0  0  0  0  0  0
   -3.5938    0.4745   -3.0383 H   0  0  0  0  0  0  0  0  0  0  0  0
   -4.7618    1.8187   -3.1831 H   0  0  0  0  0  0  0  0  0  0  0  0
   -3.3294   -1.3001    0.3923 H   0  0  0  0  0  0  0  0  0  0  0  0
   -4.1047   -3.6309    0.2443 H   0  0  0  0  0  0  0  0  0  0  0  0
   -0.0836   -4.9405   -0.5053 H   0  0  0  0  0  0  0  0  0  0  0  0
    0.7114   -2.6359   -0.3677 H   0  0  0  0  0  0  0  0  0  0  0  0
   -1.2179   -1.3541    2.5506 H   0  0  0  0  0  0  0  0  0  0  0  0
   -2.0171   -2.7351    4.8358 H   0  0  0  0  0  0  0  0  0  0  0  0
   -1.1240   -3.9912    6.8089 H   0  0  0  0  0  0  0  0  0  0  0  0
    1.3356   -4.2914    7.0867 H   0  0  0  0  0  0  0  0  0  0  0  0
    2.9122   -3.3361    5.3922 H   0  0  0  0  0  0  0  0  0  0  0  0
    3.0050   -1.9144    3.0788 H   0  0  0  0  0  0  0  0  0  0  0  0
    5.4383    1.2609   -5.4984 H   0  0  0  0  0  0  0  0  0  0  0  0
    4.8422    1.8639   -7.8071 H   0  0  0  0  0  0  0  0  0  0  0  0
  1 41  1  0  0  0  0
  1 42  1  0  0  0  0
  1 43  1  0  0  0  0
  2  1  1  0  0  0  0
  3  2  1  0  0  0  0
  4  3  2  0  0  0  0
  4 44  1  0  0  0  0
  5  4  1  0  0  0  0
  5 45  1  0  0  0  0
  6  5  2  0  0  0  0
  7  6  1  0  0  0  0
  7 46  1  0  0  0  0
  7 47  1  0  0  0  0
  8  7  1  0  0  0  0
  8 48  1  0  0  0  0
  9  8  1  0  0  0  0
 10  9  2  0  0  0  0
 11  9  1  0  0  0  0
 11 49  1  0  0  0  0
 11 50  1  0  0  0  0
 12 11  1  0  0  0  0
 13 12  1  0  0  0  0
 13 51  1  1  0  0  0
 14 13  1  0  0  0  0
 15 14  2  0  0  0  0
 16 14  1  0  0  0  0
 16 52  1  0  0  0  0
 17 16  1  0  0  0  0
 18 17  1  0  0  0  0
 18 53  1  0  0  0  0
 18 54  1  0  0  0  0
 18 55  1  0  0  0  0
 19 17  1  0  0  0  0
 19 56  1  0  0  0  0
 19 57  1  0  0  0  0
 19 58  1  0  0  0  0
 20 17  1  0  0  0  0
 20 59  1  0  0  0  0
 20 60  1  0  0  0  0
 20 61  1  0  0  0  0
 21 13  1  0  0  0  0
 22 21  2  0  0  0  0
 22 62  1  0  0  0  0
 23 22  1  0  0  0  0
 23 63  1  0  0  0  0
 24 23  2  0  0  0  0
 25 24  1  0  0  0  0
 26 24  1  0  0  0  0
 26 64  1  0  0  0  0
 27 26  2  0  0  0  0
 27 21  1  0  0  0  0
 27 65  1  0  0  0  0
 28 12  1  0  0  0  0
 29 28  2  0  0  0  0
 30 28  1  0  0  0  0
 31 30  2  0  0  0  0
 31 66  1  0  0  0  0
 32 31  1  0  0  0  0
 33 32  2  0  0  0  0
 33 67  1  0  0  0  0
 34 33  1  0  0  0  0
 34 68  1  0  0  0  0
 35 34  2  0  0  0  0
 35 69  1  0  0  0  0
 36 35  1  0  0  0  0
 36 70  1  0  0  0  0
 37 36  2  0  0  0  0
 37 32  1  0  0  0  0
 38 37  1  0  0  0  0
 38 30  1  0  0  0  0
 38 71  1  0  0  0  0
 39  6  1  0  0  0  0
 39 72  1  0  0  0  0
 40 39  2  0  0  0  0
 40  3  1  0  0  0  0
 40 73  1  0  0  0  0
M  END
>  <MOL Chiral Flag>
0

>  <energy>
102.11042449077624

$$$$
