>368.sdf
 OpenBabel10062213073D

 18 19  0  0  0  0  0  0  0  0999 V2000
    1.0222   -0.0653   -0.1479 O   0  0  0  0  0  0  0  0  0  0  0  0
    2.3649   -0.0433   -0.0071 C   0  0  0  0  0  0  0  0  0  0  0  0
    3.0799   -1.2482    0.1011 C   0  0  0  0  0  0  0  0  0  0  0  0
    2.4382   -2.4438    0.0029 N   0  0  0  0  0  0  0  0  0  0  0  0
    3.1125   -3.6246    0.0812 C   0  0  0  0  0  0  0  0  0  0  0  0
    4.4929   -3.6325    0.2992 C   0  0  0  0  0  0  0  0  0  0  0  0
    5.1782   -2.4239    0.4193 C   0  0  0  0  0  0  0  0  0  0  0  0
    4.4803   -1.2155    0.3018 C   0  0  0  0  0  0  0  0  0  0  0  0
    5.1495    0.0131    0.3671 C   0  0  0  0  0  0  0  0  0  0  0  0
    4.4375    1.2053    0.2114 C   0  0  0  0  0  0  0  0  0  0  0  0
    3.0515    1.1790    0.0316 C   0  0  0  0  0  0  0  0  0  0  0  0
    0.5025    0.7520   -0.1527 H   0  0  0  0  0  0  0  0  0  0  0  0
    2.5783   -4.5584   -0.0296 H   0  0  0  0  0  0  0  0  0  0  0  0
    5.0292   -4.5706    0.3655 H   0  0  0  0  0  0  0  0  0  0  0  0
    6.2489   -2.4288    0.5864 H   0  0  0  0  0  0  0  0  0  0  0  0
    6.2216    0.0491    0.5183 H   0  0  0  0  0  0  0  0  0  0  0  0
    4.9598    2.1524    0.2326 H   0  0  0  0  0  0  0  0  0  0  0  0
    2.5114    2.1105   -0.0819 H   0  0  0  0  0  0  0  0  0  0  0  0
  1 12  1  0  0  0  0
  2  1  1  0  0  0  0
  3  2  2  0  0  0  0
  4  3  1  0  0  0  0
  5  4  2  0  0  0  0
  5 13  1  0  0  0  0
  6  5  1  0  0  0  0
  6 14  1  0  0  0  0
  7  6  2  0  0  0  0
  7 15  1  0  0  0  0
  8  7  1  0  0  0  0
  8  3  1  0  0  0  0
  9  8  2  0  0  0  0
  9 16  1  0  0  0  0
 10  9  1  0  0  0  0
 10 17  1  0  0  0  0
 11 10  2  0  0  0  0
 11  2  1  0  0  0  0
 11 18  1  0  0  0  0
M  END
>  <MOL Chiral Flag>
0

>  <energy>
42.033949057393457

$$$$
