>371.sdf
 OpenBabel10062213083D

 37 40  0  0  0  0  0  0  0  0999 V2000
    8.2455    0.9917    0.4370 Br  0  0  0  0  0  0  0  0  0  0  0  0
    6.3980    1.0717    0.8414 C   0  0  0  0  0  0  0  0  0  0  0  0
    5.9480    0.5523    2.0541 C   0  0  0  0  0  0  0  0  0  0  0  0
    4.5941    0.5961    2.3852 C   0  0  0  0  0  0  0  0  0  0  0  0
    3.7246    1.1543    1.4447 C   0  0  0  0  0  0  0  0  0  0  0  0
    2.3644    1.3031    1.4987 N   0  0  0  0  0  0  0  0  0  0  0  0
    1.8699    1.6912    0.2757 C   0  0  0  0  0  0  0  0  0  0  0  0
    0.4742    1.5540   -0.0166 C   0  0  0  0  0  0  0  0  0  0  0  0
   -0.0340    1.6237   -1.2078 N   0  0  0  0  0  0  0  0  0  0  0  0
   -1.2431    0.9859   -1.2255 C   0  0  0  0  0  0  0  0  0  0  0  0
   -1.4812   -0.3293   -1.5957 C   0  0  0  0  0  0  0  0  0  0  0  0
   -0.5072   -1.1198   -2.2922 C   0  0  0  0  0  0  0  0  0  0  0  0
    0.2548   -1.8019   -2.8408 N   0  0  0  0  0  0  0  0  0  0  0  0
   -2.6782   -0.8414   -1.0054 C   0  0  0  0  0  0  0  0  0  0  0  0
   -3.3994    0.1613   -0.3860 C   0  0  0  0  0  0  0  0  0  0  0  0
   -4.6279   -0.0434    0.4477 C   0  0  0  0  0  0  0  0  0  0  0  0
   -5.1530   -1.4838    0.3194 C   0  0  0  0  0  0  0  0  0  0  0  0
   -4.0214   -2.5204    0.2662 C   0  0  0  0  0  0  0  0  0  0  0  0
   -3.1083   -2.2777   -0.9448 C   0  0  0  0  0  0  0  0  0  0  0  0
   -2.6731    1.6923   -0.5678 S   0  0  0  0  0  0  0  0  0  0  0  0
    2.9588    2.0287   -0.5049 C   0  0  0  0  0  0  0  0  0  0  0  0
    4.1374    1.6537    0.2115 C   0  0  0  0  0  0  0  0  0  0  0  0
    5.5131    1.6312   -0.0906 C   0  0  0  0  0  0  0  0  0  0  0  0
    6.6452    0.1004    2.7554 H   0  0  0  0  0  0  0  0  0  0  0  0
    4.2323    0.1868    3.3230 H   0  0  0  0  0  0  0  0  0  0  0  0
    1.7984    0.9976    2.2775 H   0  0  0  0  0  0  0  0  0  0  0  0
   -0.1379    1.2341    0.8516 H   0  0  0  0  0  0  0  0  0  0  0  0
   -5.4173    0.6634    0.1704 H   0  0  0  0  0  0  0  0  0  0  0  0
   -4.3692    0.1451    1.4979 H   0  0  0  0  0  0  0  0  0  0  0  0
   -5.8200   -1.7041    1.1607 H   0  0  0  0  0  0  0  0  0  0  0  0
   -5.7532   -1.5708   -0.5948 H   0  0  0  0  0  0  0  0  0  0  0  0
   -4.4377   -3.5323    0.2142 H   0  0  0  0  0  0  0  0  0  0  0  0
   -3.4328   -2.4622    1.1918 H   0  0  0  0  0  0  0  0  0  0  0  0
   -3.6363   -2.5331   -1.8704 H   0  0  0  0  0  0  0  0  0  0  0  0
   -2.2356   -2.9368   -0.8675 H   0  0  0  0  0  0  0  0  0  0  0  0
    2.9145    2.3826   -1.5281 H   0  0  0  0  0  0  0  0  0  0  0  0
    5.8703    2.0082   -1.0435 H   0  0  0  0  0  0  0  0  0  0  0  0
  2  1  1  0  0  0  0
  3  2  2  0  0  0  0
  3 24  1  0  0  0  0
  4  3  1  0  0  0  0
  4 25  1  0  0  0  0
  5  4  2  0  0  0  0
  6  5  1  0  0  0  0
  6 26  1  0  0  0  0
  7  6  1  0  0  0  0
  8  7  1  0  0  0  0
  8 27  1  0  0  0  0
  9  8  2  0  0  0  0
 10  9  1  0  0  0  0
 11 10  2  0  0  0  0
 12 11  1  0  0  0  0
 13 12  3  0  0  0  0
 14 11  1  0  0  0  0
 15 14  2  0  0  0  0
 16 15  1  0  0  0  0
 16 28  1  0  0  0  0
 16 29  1  0  0  0  0
 17 16  1  0  0  0  0
 17 30  1  0  0  0  0
 17 31  1  0  0  0  0
 18 17  1  0  0  0  0
 18 32  1  0  0  0  0
 18 33  1  0  0  0  0
 19 18  1  0  0  0  0
 19 14  1  0  0  0  0
 19 34  1  0  0  0  0
 19 35  1  0  0  0  0
 20 15  1  0  0  0  0
 20 10  1  0  0  0  0
 21  7  2  0  0  0  0
 21 36  1  0  0  0  0
 22 21  1  0  0  0  0
 22  5  1  0  0  0  0
 23 22  2  0  0  0  0
 23  2  1  0  0  0  0
 23 37  1  0  0  0  0
M  END
>  <MOL Chiral Flag>
0

>  <energy>
62.124694899441096

$$$$
