>372.sdf
 OpenBabel10062213083D

 26 27  0  0  0  0  0  0  0  0999 V2000
    3.0804   -1.1774    0.4497 C   0  0  0  0  0  0  0  0  0  0  0  0
    3.2514    0.3076    0.1090 C   0  0  0  0  0  0  0  0  0  0  0  0
    2.2545    0.7660   -0.9655 C   0  0  0  0  0  0  0  0  0  0  0  0
    0.8332    0.7134   -0.4839 C   0  0  0  0  0  0  0  0  0  0  0  0
    0.0160   -0.2800   -0.9280 N   0  0  0  0  0  0  0  0  0  0  0  0
   -1.2723   -0.3860   -0.5143 C   0  0  0  0  0  0  0  0  0  0  0  0
   -2.0661   -1.4440   -0.9678 C   0  0  0  0  0  0  0  0  0  0  0  0
   -3.3917   -1.5562   -0.5415 C   0  0  0  0  0  0  0  0  0  0  0  0
   -3.9317   -0.6086    0.3352 C   0  0  0  0  0  0  0  0  0  0  0  0
   -3.1449    0.4536    0.7961 C   0  0  0  0  0  0  0  0  0  0  0  0
   -1.8103    0.5668    0.3791 C   0  0  0  0  0  0  0  0  0  0  0  0
   -0.9903    1.6070    0.8353 C   0  0  0  0  0  0  0  0  0  0  0  0
    0.3394    1.6753    0.4129 C   0  0  0  0  0  0  0  0  0  0  0  0
    3.1996   -1.7983   -0.4653 H   0  0  0  0  0  0  0  0  0  0  0  0
    3.8556   -1.4863    1.1817 H   0  0  0  0  0  0  0  0  0  0  0  0
    2.0804   -1.3752    0.8897 H   0  0  0  0  0  0  0  0  0  0  0  0
    4.2789    0.4459   -0.2900 H   0  0  0  0  0  0  0  0  0  0  0  0
    3.1469    0.9217    1.0292 H   0  0  0  0  0  0  0  0  0  0  0  0
    2.4813    1.8022   -1.2981 H   0  0  0  0  0  0  0  0  0  0  0  0
    2.3778    0.1007   -1.8476 H   0  0  0  0  0  0  0  0  0  0  0  0
   -1.6531   -2.1808   -1.6457 H   0  0  0  0  0  0  0  0  0  0  0  0
   -4.0014   -2.3790   -0.8915 H   0  0  0  0  0  0  0  0  0  0  0  0
   -4.9598   -0.7001    0.6599 H   0  0  0  0  0  0  0  0  0  0  0  0
   -3.5739    1.1786    1.4776 H   0  0  0  0  0  0  0  0  0  0  0  0
   -1.3759    2.3558    1.5177 H   0  0  0  0  0  0  0  0  0  0  0  0
    0.9761    2.4777    0.7663 H   0  0  0  0  0  0  0  0  0  0  0  0
  1 14  1  0  0  0  0
  1 15  1  0  0  0  0
  1 16  1  0  0  0  0
  2  1  1  0  0  0  0
  2 17  1  0  0  0  0
  2 18  1  0  0  0  0
  3  2  1  0  0  0  0
  3 19  1  0  0  0  0
  3 20  1  0  0  0  0
  4  3  1  0  0  0  0
  5  4  2  0  0  0  0
  6  5  1  0  0  0  0
  7  6  2  0  0  0  0
  7 21  1  0  0  0  0
  8  7  1  0  0  0  0
  8 22  1  0  0  0  0
  9  8  2  0  0  0  0
  9 23  1  0  0  0  0
 10  9  1  0  0  0  0
 10 24  1  0  0  0  0
 11 10  2  0  0  0  0
 11  6  1  0  0  0  0
 12 11  1  0  0  0  0
 12 25  1  0  0  0  0
 13 12  2  0  0  0  0
 13  4  1  0  0  0  0
 13 26  1  0  0  0  0
M  END
>  <MOL Chiral Flag>
0

>  <energy>
33.972951641385684

$$$$
