>375.sdf
 OpenBabel10062213093D

 67 72  0  0  0  0  0  0  0  0999 V2000
    1.1107    3.0191   -3.7653 C   0  0  0  0  0  0  0  0  0  0  0  0
    0.0935    2.9734   -2.8332 O   0  0  0  0  0  0  0  0  0  0  0  0
   -0.4708    1.8320   -2.3516 C   0  0  0  0  0  0  0  0  0  0  0  0
   -0.9086    1.7963   -1.0129 C   0  0  0  0  0  0  0  0  0  0  0  0
   -1.3901    0.6692   -0.5125 O   0  0  0  0  0  0  0  0  0  0  0  0
   -1.4849   -0.4625   -1.1916 C   0  0  0  0  0  0  0  0  0  0  0  0
   -1.9172   -1.6085   -0.5122 C   0  0  0  0  0  0  0  0  0  0  0  0
   -2.0453   -2.8155   -1.1974 C   0  0  0  0  0  0  0  0  0  0  0  0
   -1.7550   -2.8858   -2.5550 C   0  0  0  0  0  0  0  0  0  0  0  0
   -1.3126   -1.7613   -3.2622 C   0  0  0  0  0  0  0  0  0  0  0  0
   -1.0617   -1.9354   -4.5814 O   0  0  0  0  0  0  0  0  0  0  0  0
   -1.1465   -0.5159   -2.5653 C   0  0  0  0  0  0  0  0  0  0  0  0
   -0.6322    0.6719   -3.1495 C   0  0  0  0  0  0  0  0  0  0  0  0
   -0.3120    0.7005   -4.3182 O   0  0  0  0  0  0  0  0  0  0  0  0
   -2.2092   -1.5585    0.9410 C   0  0  0  0  0  0  0  0  0  0  0  0
   -3.5468   -1.5115    1.3974 C   0  0  0  0  0  0  0  0  0  0  0  0
   -4.5808   -1.4805    0.5257 O   0  0  0  0  0  0  0  0  0  0  0  0
   -3.8133   -1.4840    2.7800 C   0  0  0  0  0  0  0  0  0  0  0  0
   -5.0797   -1.4117    3.2416 O   0  0  0  0  0  0  0  0  0  0  0  0
   -2.7608   -1.5303    3.6972 C   0  0  0  0  0  0  0  0  0  0  0  0
   -1.4412   -1.5879    3.2547 C   0  0  0  0  0  0  0  0  0  0  0  0
   -1.1526   -1.5867    1.8842 C   0  0  0  0  0  0  0  0  0  0  0  0
    0.2598   -1.6339    1.4599 C   0  0  0  0  0  0  0  0  0  0  0  0
    0.9566   -2.8460    1.4434 C   0  0  0  0  0  0  0  0  0  0  0  0
    0.2778   -3.9808    1.7666 O   0  0  0  0  0  0  0  0  0  0  0  0
    0.4183   -5.1844    1.1036 C   0  0  0  0  0  0  0  0  0  0  0  0
    2.3124   -2.8441    1.0448 C   0  0  0  0  0  0  0  0  0  0  0  0
    2.9394   -3.8836    1.0552 O   0  0  0  0  0  0  0  0  0  0  0  0
    2.9179   -1.6283    0.6292 C   0  0  0  0  0  0  0  0  0  0  0  0
    4.2775   -1.5028    0.1811 C   0  0  0  0  0  0  0  0  0  0  0  0
    5.1630   -2.5273    0.1409 O   0  0  0  0  0  0  0  0  0  0  0  0
    4.7428   -0.2556   -0.2547 C   0  0  0  0  0  0  0  0  0  0  0  0
    3.9136    0.8684   -0.2503 C   0  0  0  0  0  0  0  0  0  0  0  0
    4.3683    2.0606   -0.6866 O   0  0  0  0  0  0  0  0  0  0  0  0
    2.6054    0.7606    0.2054 C   0  0  0  0  0  0  0  0  0  0  0  0
    2.1022   -0.4647    0.6400 C   0  0  0  0  0  0  0  0  0  0  0  0
    0.8426   -0.5165    1.0535 O   0  0  0  0  0  0  0  0  0  0  0  0
   -0.7953    2.9396   -0.0668 C   0  0  0  0  0  0  0  0  0  0  0  0
   -1.7369    3.0456    0.9719 C   0  0  0  0  0  0  0  0  0  0  0  0
   -1.6430    4.0670    1.9167 C   0  0  0  0  0  0  0  0  0  0  0  0
   -0.5908    4.9835    1.8626 C   0  0  0  0  0  0  0  0  0  0  0  0
   -0.5014    5.9382    2.8123 O   0  0  0  0  0  0  0  0  0  0  0  0
    0.3652    4.8879    0.8358 C   0  0  0  0  0  0  0  0  0  0  0  0
    1.4001    5.7532    0.7933 O   0  0  0  0  0  0  0  0  0  0  0  0
    0.2536    3.8782   -0.1316 C   0  0  0  0  0  0  0  0  0  0  0  0
    1.5093    4.0518   -3.8110 H   0  0  0  0  0  0  0  0  0  0  0  0
    1.9367    2.3503   -3.4339 H   0  0  0  0  0  0  0  0  0  0  0  0
    0.7656    2.7417   -4.7800 H   0  0  0  0  0  0  0  0  0  0  0  0
   -2.3651   -3.7074   -0.6727 H   0  0  0  0  0  0  0  0  0  0  0  0
   -1.8643   -3.8322   -3.0697 H   0  0  0  0  0  0  0  0  0  0  0  0
   -0.8182   -1.2570   -5.2171 H   0  0  0  0  0  0  0  0  0  0  0  0
   -4.4632   -1.4911   -0.4337 H   0  0  0  0  0  0  0  0  0  0  0  0
   -5.8425   -1.3500    2.6500 H   0  0  0  0  0  0  0  0  0  0  0  0
   -2.9682   -1.5170    4.7602 H   0  0  0  0  0  0  0  0  0  0  0  0
   -0.6381   -1.6213    3.9824 H   0  0  0  0  0  0  0  0  0  0  0  0
    0.2426   -5.0233    0.0161 H   0  0  0  0  0  0  0  0  0  0  0  0
    1.4102   -5.6466    1.2658 H   0  0  0  0  0  0  0  0  0  0  0  0
   -0.3502   -5.8920    1.4723 H   0  0  0  0  0  0  0  0  0  0  0  0
    5.0163   -3.4297    0.4359 H   0  0  0  0  0  0  0  0  0  0  0  0
    5.7639   -0.1639   -0.6052 H   0  0  0  0  0  0  0  0  0  0  0  0
    5.2669    2.1681   -1.0292 H   0  0  0  0  0  0  0  0  0  0  0  0
    1.9673    1.6333    0.2128 H   0  0  0  0  0  0  0  0  0  0  0  0
   -2.5553    2.3384    1.0445 H   0  0  0  0  0  0  0  0  0  0  0  0
   -2.3825    4.1359    2.7046 H   0  0  0  0  0  0  0  0  0  0  0  0
    0.2271    6.5739    2.8378 H   0  0  0  0  0  0  0  0  0  0  0  0
    2.0908    5.6885    0.1180 H   0  0  0  0  0  0  0  0  0  0  0  0
    1.0191    3.8087   -0.8874 H   0  0  0  0  0  0  0  0  0  0  0  0
  1 46  1  0  0  0  0
  1 47  1  0  0  0  0
  1 48  1  0  0  0  0
  2  1  1  0  0  0  0
  3  2  1  0  0  0  0
  4  3  2  0  0  0  0
  5  4  1  0  0  0  0
  6  5  1  0  0  0  0
  7  6  2  0  0  0  0
  8  7  1  0  0  0  0
  8 49  1  0  0  0  0
  9  8  2  0  0  0  0
  9 50  1  0  0  0  0
 10  9  1  0  0  0  0
 11 10  1  0  0  0  0
 11 51  1  0  0  0  0
 12 10  2  0  0  0  0
 12  6  1  0  0  0  0
 13 12  1  0  0  0  0
 13  3  1  0  0  0  0
 14 13  2  0  0  0  0
 15  7  1  0  0  0  0
 16 15  2  0  0  0  0
 17 16  1  0  0  0  0
 17 52  1  0  0  0  0
 18 16  1  0  0  0  0
 19 18  1  0  0  0  0
 19 53  1  0  0  0  0
 20 18  2  0  0  0  0
 20 54  1  0  0  0  0
 21 20  1  0  0  0  0
 21 55  1  0  0  0  0
 22 21  2  0  0  0  0
 22 15  1  0  0  0  0
 23 22  1  0  0  0  0
 24 23  2  0  0  0  0
 25 24  1  0  0  0  0
 26 25  1  0  0  0  0
 26 56  1  0  0  0  0
 26 57  1  0  0  0  0
 26 58  1  0  0  0  0
 27 24  1  0  0  0  0
 28 27  2  0  0  0  0
 29 27  1  0  0  0  0
 30 29  2  0  0  0  0
 31 30  1  0  0  0  0
 31 59  1  0  0  0  0
 32 30  1  0  0  0  0
 32 60  1  0  0  0  0
 33 32  2  0  0  0  0
 34 33  1  0  0  0  0
 34 61  1  0  0  0  0
 35 33  1  0  0  0  0
 35 62  1  0  0  0  0
 36 35  2  0  0  0  0
 36 29  1  0  0  0  0
 37 36  1  0  0  0  0
 37 23  1  0  0  0  0
 38  4  1  0  0  0  0
 39 38  2  0  0  0  0
 39 63  1  0  0  0  0
 40 39  1  0  0  0  0
 40 64  1  0  0  0  0
 41 40  2  0  0  0  0
 42 41  1  0  0  0  0
 42 65  1  0  0  0  0
 43 41  1  0  0  0  0
 44 43  1  0  0  0  0
 44 66  1  0  0  0  0
 45 43  2  0  0  0  0
 45 38  1  0  0  0  0
 45 67  1  0  0  0  0
M  END
>  <MOL Chiral Flag>
0

>  <energy>
133.21945010590855

$$$$
