>377.sdf
 OpenBabel10062213103D

 41 44  0  0  0  0  0  0  0  0999 V2000
   -0.1009    4.1474   -0.2865 C   0  0  0  0  0  0  0  0  0  0  0  0
   -1.4442    3.7316   -0.6597 N   0  0  0  0  0  0  0  0  0  0  0  0
   -2.3693    4.7110   -1.2100 C   0  0  0  0  0  0  0  0  0  0  0  0
   -1.8962    2.3774   -0.4872 C   0  0  0  0  0  0  0  0  0  0  0  0
   -3.2337    2.0989   -0.5905 N   0  0  0  0  0  0  0  0  0  0  0  0
   -3.7322    0.8358   -0.4347 C   0  0  0  0  0  0  0  0  0  0  0  0
   -2.8587   -0.2265   -0.1871 C   0  0  0  0  0  0  0  0  0  0  0  0
   -1.5345    0.0478   -0.1128 N   0  0  0  0  0  0  0  0  0  0  0  0
   -1.0327    1.2896   -0.2318 C   0  0  0  0  0  0  0  0  0  0  0  0
    0.3148    1.3070   -0.1099 N   0  0  0  0  0  0  0  0  0  0  0  0
    0.6589    0.0073    0.0631 C   0  0  0  0  0  0  0  0  0  0  0  0
   -0.4879   -0.7689    0.0727 C   0  0  0  0  0  0  0  0  0  0  0  0
   -0.5867   -2.2088    0.3558 C   0  0  0  0  0  0  0  0  0  0  0  0
   -0.7498   -2.6252    1.6824 C   0  0  0  0  0  0  0  0  0  0  0  0
   -0.8550   -3.9863    1.9684 C   0  0  0  0  0  0  0  0  0  0  0  0
   -0.7993   -4.8993    0.9622 N   0  0  0  0  0  0  0  0  0  0  0  0
   -0.6429   -4.5189   -0.3355 C   0  0  0  0  0  0  0  0  0  0  0  0
   -0.5352   -3.1632   -0.6642 C   0  0  0  0  0  0  0  0  0  0  0  0
    2.0481   -0.4684    0.1684 C   0  0  0  0  0  0  0  0  0  0  0  0
    2.5166   -1.4513   -0.7201 C   0  0  0  0  0  0  0  0  0  0  0  0
    3.8433   -1.8844   -0.6557 C   0  0  0  0  0  0  0  0  0  0  0  0
    4.7020   -1.3629    0.3151 C   0  0  0  0  0  0  0  0  0  0  0  0
    5.9854   -1.7944    0.3853 F   0  0  0  0  0  0  0  0  0  0  0  0
    4.2383   -0.3926    1.2103 C   0  0  0  0  0  0  0  0  0  0  0  0
    2.9191    0.0693    1.1260 C   0  0  0  0  0  0  0  0  0  0  0  0
    0.0602    3.9478    0.7949 H   0  0  0  0  0  0  0  0  0  0  0  0
    0.0568    5.2346   -0.4481 H   0  0  0  0  0  0  0  0  0  0  0  0
    0.6583    3.6183   -0.8950 H   0  0  0  0  0  0  0  0  0  0  0  0
   -3.2668    4.7986   -0.5635 H   0  0  0  0  0  0  0  0  0  0  0  0
   -2.6829    4.3872   -2.2267 H   0  0  0  0  0  0  0  0  0  0  0  0
   -1.9113    5.7174   -1.3078 H   0  0  0  0  0  0  0  0  0  0  0  0
   -4.7964    0.6599   -0.5125 H   0  0  0  0  0  0  0  0  0  0  0  0
   -3.2295   -1.2379   -0.0756 H   0  0  0  0  0  0  0  0  0  0  0  0
   -0.7963   -1.8992    2.4861 H   0  0  0  0  0  0  0  0  0  0  0  0
   -0.9827   -4.3156    2.9915 H   0  0  0  0  0  0  0  0  0  0  0  0
   -0.6044   -5.2697   -1.1125 H   0  0  0  0  0  0  0  0  0  0  0  0
   -0.4146   -2.8630   -1.6969 H   0  0  0  0  0  0  0  0  0  0  0  0
    1.8659   -1.8531   -1.4861 H   0  0  0  0  0  0  0  0  0  0  0  0
    4.2051   -2.6223   -1.3610 H   0  0  0  0  0  0  0  0  0  0  0  0
    4.9022    0.0042    1.9669 H   0  0  0  0  0  0  0  0  0  0  0  0
    2.5688    0.8209    1.8222 H   0  0  0  0  0  0  0  0  0  0  0  0
  1 26  1  0  0  0  0
  1 27  1  0  0  0  0
  1 28  1  0  0  0  0
  2  1  1  0  0  0  0
  3  2  1  0  0  0  0
  3 29  1  0  0  0  0
  3 30  1  0  0  0  0
  3 31  1  0  0  0  0
  4  2  1  0  0  0  0
  5  4  2  0  0  0  0
  6  5  1  0  0  0  0
  6 32  1  0  0  0  0
  7  6  2  0  0  0  0
  7 33  1  0  0  0  0
  8  7  1  0  0  0  0
  9  8  1  0  0  0  0
  9  4  1  0  0  0  0
 10  9  2  0  0  0  0
 11 10  1  0  0  0  0
 12 11  2  0  0  0  0
 12  8  1  0  0  0  0
 13 12  1  0  0  0  0
 14 13  2  0  0  0  0
 14 34  1  0  0  0  0
 15 14  1  0  0  0  0
 15 35  1  0  0  0  0
 16 15  2  0  0  0  0
 17 16  1  0  0  0  0
 17 36  1  0  0  0  0
 18 17  2  0  0  0  0
 18 13  1  0  0  0  0
 18 37  1  0  0  0  0
 19 11  1  0  0  0  0
 20 19  2  0  0  0  0
 20 38  1  0  0  0  0
 21 20  1  0  0  0  0
 21 39  1  0  0  0  0
 22 21  2  0  0  0  0
 23 22  1  0  0  0  0
 24 22  1  0  0  0  0
 24 40  1  0  0  0  0
 25 24  2  0  0  0  0
 25 19  1  0  0  0  0
 25 41  1  0  0  0  0
M  END
>  <MOL Chiral Flag>
0

>  <energy>
43.007504384436139

$$$$
