>382.sdf
 OpenBabel10062213123D

 33 34  0  0  0  0  0  0  0  0999 V2000
   -0.1223   -2.7829   -3.0845 C   0  0  0  0  0  0  0  0  0  0  0  0
   -0.2730   -4.0055   -1.5641 Se  0  0  0  0  0  0  0  0  0  0  0  0
   -0.8647   -2.5557   -0.4194 C   0  0  0  0  0  0  0  0  0  0  0  0
   -2.2664   -2.2989   -0.3563 N   0  0  0  0  0  0  0  0  0  0  0  0
   -2.8025   -1.1617    0.1791 C   0  0  0  0  0  0  0  0  0  0  0  0
   -2.0815   -0.2764    0.6169 O   0  0  0  0  0  0  0  0  0  0  0  0
   -4.2586   -0.9462    0.1836 C   0  0  0  0  0  0  0  0  0  0  0  0
   -5.2703   -1.8675   -0.1111 C   0  0  0  0  0  0  0  0  0  0  0  0
   -6.5754   -1.2965   -0.0400 C   0  0  0  0  0  0  0  0  0  0  0  0
   -6.5786    0.0632    0.3061 C   0  0  0  0  0  0  0  0  0  0  0  0
   -4.9980    0.4979    0.5267 S   0  0  0  0  0  0  0  0  0  0  0  0
   -7.7627   -2.0340   -0.2987 N   0  0  0  0  0  0  0  0  0  0  0  0
   -8.8240   -1.4880   -0.2857 O   0  0  0  0  0  0  0  0  0  0  0  0
   -7.7057   -3.2051   -0.5257 O   0  0  0  0  0  0  0  0  0  0  0  0
   -0.0317   -1.7730    0.1901 N   0  0  0  0  0  0  0  0  0  0  0  0
    1.3814   -1.9156    0.2119 C   0  0  0  0  0  0  0  0  0  0  0  0
    1.9086   -3.0056    0.0486 O   0  0  0  0  0  0  0  0  0  0  0  0
    2.2194   -0.7273    0.3872 C   0  0  0  0  0  0  0  0  0  0  0  0
    3.6026   -0.6857    0.2388 C   0  0  0  0  0  0  0  0  0  0  0  0
    4.1393    0.6254    0.3757 C   0  0  0  0  0  0  0  0  0  0  0  0
    3.1726    1.6054    0.6572 C   0  0  0  0  0  0  0  0  0  0  0  0
    1.7089    0.8221    0.6971 S   0  0  0  0  0  0  0  0  0  0  0  0
    5.5211    0.9118    0.2091 N   0  0  0  0  0  0  0  0  0  0  0  0
    6.2843    0.0365   -0.0722 O   0  0  0  0  0  0  0  0  0  0  0  0
    5.9169    2.0345    0.2870 O   0  0  0  0  0  0  0  0  0  0  0  0
   -1.1021   -2.6791   -3.5951 H   0  0  0  0  0  0  0  0  0  0  0  0
    0.2488   -1.7878   -2.7581 H   0  0  0  0  0  0  0  0  0  0  0  0
    0.6322   -3.1787   -3.7947 H   0  0  0  0  0  0  0  0  0  0  0  0
   -2.8908   -2.9942   -0.7880 H   0  0  0  0  0  0  0  0  0  0  0  0
   -5.0917   -2.9039   -0.3656 H   0  0  0  0  0  0  0  0  0  0  0  0
   -7.4392    0.7073    0.4138 H   0  0  0  0  0  0  0  0  0  0  0  0
    4.1975   -1.5589    0.0073 H   0  0  0  0  0  0  0  0  0  0  0  0
    3.3423    2.6649    0.7961 H   0  0  0  0  0  0  0  0  0  0  0  0
  1 26  1  0  0  0  0
  1 27  1  0  0  0  0
  1 28  1  0  0  0  0
  2  1  1  0  0  0  0
  3  2  1  0  0  0  0
  4  3  1  0  0  0  0
  4 29  1  0  0  0  0
  5  4  1  0  0  0  0
  6  5  2  0  0  0  0
  7  5  1  0  0  0  0
  8  7  2  0  0  0  0
  8 30  1  0  0  0  0
  9  8  1  0  0  0  0
 10  9  2  0  0  0  0
 10 31  1  0  0  0  0
 11 10  1  0  0  0  0
 11  7  1  0  0  0  0
 12  9  1  0  0  0  0
 13 12  2  0  0  0  0
 14 12  2  0  0  0  0
 15  3  2  0  0  0  0
 16 15  1  0  0  0  0
 17 16  2  0  0  0  0
 18 16  1  0  0  0  0
 19 18  2  0  0  0  0
 19 32  1  0  0  0  0
 20 19  1  0  0  0  0
 21 20  2  0  0  0  0
 21 33  1  0  0  0  0
 22 21  1  0  0  0  0
 22 18  1  0  0  0  0
 23 20  1  0  0  0  0
 24 23  2  0  0  0  0
 25 23  2  0  0  0  0
M  END
>  <MOL Chiral Flag>
0

>  <energy>
24.356603615091501

$$$$
