>384.sdf
 OpenBabel10062213133D

 50 52  0  0  0  0  0  0  0  0999 V2000
   -6.4343    0.0807   -2.3518 C   0  0  0  0  0  0  0  0  0  0  0  0
   -5.6407    1.2823   -2.6172 N   0  3  0  0  0  0  0  0  0  0  0  0
   -4.4556    1.3372   -1.7485 C   0  0  0  0  0  0  0  0  0  0  0  0
   -3.6001    2.5589   -2.0897 C   0  0  0  0  0  0  0  0  0  0  0  0
   -2.3949    2.5243   -1.3517 O   0  0  0  0  0  0  0  0  0  0  0  0
   -2.3366    3.5036   -0.3309 C   0  0  0  0  0  0  0  0  0  0  0  0
   -0.8754    3.9132   -0.1691 C   0  0  0  0  0  0  0  0  0  0  0  0
   -0.0577    2.7421    0.1525 N   0  0  0  0  0  0  0  0  0  0  0  0
   -0.1184    2.1132    1.3183 N   0  0  0  0  0  0  0  0  0  0  0  0
    0.7532    1.0795    1.2945 C   0  0  0  0  0  0  0  0  0  0  0  0
    0.9145    0.2781    2.3794 O   0  0  0  0  0  0  0  0  0  0  0  0
    1.9782   -0.5429    2.6964 C   0  0  0  0  0  0  0  0  0  0  0  0
    1.4974   -1.9617    2.8276 C   0  0  0  0  0  0  0  0  0  0  0  0
    1.5437   -2.6134    4.0728 C   0  0  0  0  0  0  0  0  0  0  0  0
    1.0826   -3.9271    4.1974 C   0  0  0  0  0  0  0  0  0  0  0  0
    0.5780   -4.6008    3.0824 C   0  0  0  0  0  0  0  0  0  0  0  0
    0.5326   -3.9614    1.8402 C   0  0  0  0  0  0  0  0  0  0  0  0
    0.9882   -2.6450    1.7110 C   0  0  0  0  0  0  0  0  0  0  0  0
    1.3660    1.0414    0.0361 C   0  0  0  0  0  0  0  0  0  0  0  0
    2.2923    0.1916   -0.5860 C   0  0  0  0  0  0  0  0  0  0  0  0
    2.6758    0.4627   -1.9258 C   0  0  0  0  0  0  0  0  0  0  0  0
    2.1172    1.5836   -2.5967 C   0  0  0  0  0  0  0  0  0  0  0  0
    1.1895    2.4134   -1.9542 C   0  0  0  0  0  0  0  0  0  0  0  0
    0.8338    2.1116   -0.6398 C   0  0  0  0  0  0  0  0  0  0  0  0
    3.6052   -0.3886   -2.6009 N   0  0  0  0  0  0  0  0  0  0  0  0
    4.0703   -1.3371   -2.0437 O   0  0  0  0  0  0  0  0  0  0  0  0
    3.9161   -0.1656   -3.7323 O   0  0  0  0  0  0  0  0  0  0  0  0
   -7.3211    0.0653   -3.0219 H   0  0  0  0  0  0  0  0  0  0  0  0
   -6.7902    0.0683   -1.2988 H   0  0  0  0  0  0  0  0  0  0  0  0
   -5.8359   -0.8356   -2.5515 H   0  0  0  0  0  0  0  0  0  0  0  0
   -6.2377    2.1267   -2.4542 H   0  0  0  0  0  0  0  0  0  0  0  0
   -5.3400    1.2604   -3.6201 H   0  0  0  0  0  0  0  0  0  0  0  0
   -3.8383    0.4217   -1.8933 H   0  0  0  0  0  0  0  0  0  0  0  0
   -4.7617    1.3950   -0.6792 H   0  0  0  0  0  0  0  0  0  0  0  0
   -4.2013    3.4875   -1.9619 H   0  0  0  0  0  0  0  0  0  0  0  0
   -3.3234    2.5179   -3.1648 H   0  0  0  0  0  0  0  0  0  0  0  0
   -2.7260    3.0762    0.6181 H   0  0  0  0  0  0  0  0  0  0  0  0
   -2.8930    4.4376   -0.5735 H   0  0  0  0  0  0  0  0  0  0  0  0
   -0.7549    4.6818    0.6246 H   0  0  0  0  0  0  0  0  0  0  0  0
   -0.5535    4.3712   -1.1253 H   0  0  0  0  0  0  0  0  0  0  0  0
    2.3851   -0.1896    3.6677 H   0  0  0  0  0  0  0  0  0  0  0  0
    2.8173   -0.4678    1.9878 H   0  0  0  0  0  0  0  0  0  0  0  0
    1.9290   -2.1027    4.9467 H   0  0  0  0  0  0  0  0  0  0  0  0
    1.1150   -4.4219    5.1596 H   0  0  0  0  0  0  0  0  0  0  0  0
    0.2212   -5.6178    3.1815 H   0  0  0  0  0  0  0  0  0  0  0  0
    0.1416   -4.4853    0.9777 H   0  0  0  0  0  0  0  0  0  0  0  0
    0.9437   -2.1598    0.7450 H   0  0  0  0  0  0  0  0  0  0  0  0
    2.6985   -0.6677   -0.0840 H   0  0  0  0  0  0  0  0  0  0  0  0
    2.3927    1.8056   -3.6197 H   0  0  0  0  0  0  0  0  0  0  0  0
    0.7624    3.2523   -2.4840 H   0  0  0  0  0  0  0  0  0  0  0  0
  1 28  1  0  0  0  0
  1 29  1  0  0  0  0
  1 30  1  0  0  0  0
  2  1  1  0  0  0  0
  2 31  1  0  0  0  0
  2 32  1  0  0  0  0
  3  2  1  0  0  0  0
  3 33  1  0  0  0  0
  3 34  1  0  0  0  0
  4  3  1  0  0  0  0
  4 35  1  0  0  0  0
  4 36  1  0  0  0  0
  5  4  1  0  0  0  0
  6  5  1  0  0  0  0
  6 37  1  0  0  0  0
  6 38  1  0  0  0  0
  7  6  1  0  0  0  0
  7 39  1  0  0  0  0
  7 40  1  0  0  0  0
  8  7  1  0  0  0  0
  9  8  1  0  0  0  0
 10  9  2  0  0  0  0
 11 10  1  0  0  0  0
 12 11  1  0  0  0  0
 12 41  1  0  0  0  0
 12 42  1  0  0  0  0
 13 12  1  0  0  0  0
 14 13  2  0  0  0  0
 14 43  1  0  0  0  0
 15 14  1  0  0  0  0
 15 44  1  0  0  0  0
 16 15  2  0  0  0  0
 16 45  1  0  0  0  0
 17 16  1  0  0  0  0
 17 46  1  0  0  0  0
 18 17  2  0  0  0  0
 18 13  1  0  0  0  0
 18 47  1  0  0  0  0
 19 10  1  0  0  0  0
 20 19  2  0  0  0  0
 20 48  1  0  0  0  0
 21 20  1  0  0  0  0
 22 21  2  0  0  0  0
 22 49  1  0  0  0  0
 23 22  1  0  0  0  0
 23 50  1  0  0  0  0
 24 23  2  0  0  0  0
 24  8  1  0  0  0  0
 24 19  1  0  0  0  0
 25 21  1  0  0  0  0
 26 25  2  0  0  0  0
 27 25  2  0  0  0  0
M  CHG  1   2   1
M  END
>  <MOL Chiral Flag>
0

>  <energy>
105.27749201394434

$$$$
