>385.sdf
 OpenBabel10062213143D

 34 36  0  0  0  0  0  0  0  0999 V2000
    7.2068   -4.3116    1.0734 Cl  0  0  0  0  0  0  0  0  0  0  0  0
    6.0323   -3.3937    0.1480 C   0  0  0  0  0  0  0  0  0  0  0  0
    6.3790   -2.8747   -1.0989 C   0  0  0  0  0  0  0  0  0  0  0  0
    5.4454   -2.1435   -1.8329 C   0  0  0  0  0  0  0  0  0  0  0  0
    4.1577   -1.9282   -1.3287 C   0  0  0  0  0  0  0  0  0  0  0  0
    3.7886   -2.4497   -0.0635 C   0  0  0  0  0  0  0  0  0  0  0  0
    2.4968   -2.2539    0.5404 N   0  0  0  0  0  0  0  0  0  0  0  0
    1.3774   -1.7296   -0.0405 C   0  0  0  0  0  0  0  0  0  0  0  0
    1.3579   -1.4062   -1.2172 O   0  0  0  0  0  0  0  0  0  0  0  0
    0.2656   -1.5760    0.7239 O   0  0  0  0  0  0  0  0  0  0  0  0
   -0.9126   -1.2059    0.2470 N   0  0  0  0  0  0  0  0  0  0  0  0
   -1.9744   -0.8742    1.1527 C   0  0  0  0  0  0  0  0  0  0  0  0
   -1.7095   -0.8117    2.4215 N   0  0  0  0  0  0  0  0  0  0  0  0
   -3.3768   -0.6036    0.6351 C   0  0  0  0  0  0  0  0  0  0  0  0
   -3.7230   -0.9006   -0.7176 C   0  0  0  0  0  0  0  0  0  0  0  0
   -5.0249   -0.6496   -1.1339 C   0  0  0  0  0  0  0  0  0  0  0  0
   -5.5840   -0.8503   -2.3358 N   0  0  0  0  0  0  0  0  0  0  0  0
   -6.8278   -0.4570   -2.2093 O   0  0  0  0  0  0  0  0  0  0  0  0
   -7.1055   -0.0177   -1.0065 N   0  0  0  0  0  0  0  0  0  0  0  0
   -5.9640   -0.1374   -0.3150 C   0  0  0  0  0  0  0  0  0  0  0  0
   -5.7012    0.1786    1.0049 C   0  0  0  0  0  0  0  0  0  0  0  0
   -4.3989   -0.0560    1.4875 C   0  0  0  0  0  0  0  0  0  0  0  0
    4.7505   -3.1797    0.6628 C   0  0  0  0  0  0  0  0  0  0  0  0
    7.3728   -3.0340   -1.4976 H   0  0  0  0  0  0  0  0  0  0  0  0
    5.7218   -1.7355   -2.7967 H   0  0  0  0  0  0  0  0  0  0  0  0
    3.4904   -1.3434   -1.9339 H   0  0  0  0  0  0  0  0  0  0  0  0
    2.3981   -2.5495    1.5241 H   0  0  0  0  0  0  0  0  0  0  0  0
   -1.0507   -1.1455   -0.7694 H   0  0  0  0  0  0  0  0  0  0  0  0
   -0.7575   -0.9904    2.7710 H   0  0  0  0  0  0  0  0  0  0  0  0
   -3.0297   -1.3247   -1.4248 H   0  0  0  0  0  0  0  0  0  0  0  0
   -6.4698    0.5910    1.6459 H   0  0  0  0  0  0  0  0  0  0  0  0
   -4.2114    0.2028    2.5152 H   0  0  0  0  0  0  0  0  0  0  0  0
    4.4986   -3.5867    1.6345 H   0  0  0  0  0  0  0  0  0  0  0  0
   -2.4185   -0.5937    3.1276 H   0  0  0  0  0  0  0  0  0  0  0  0
  2  1  1  0  0  0  0
  3  2  2  0  0  0  0
  3 24  1  0  0  0  0
  4  3  1  0  0  0  0
  4 25  1  0  0  0  0
  5  4  2  0  0  0  0
  5 26  1  0  0  0  0
  6  5  1  0  0  0  0
  7  6  1  0  0  0  0
  7 27  1  0  0  0  0
  8  7  1  0  0  0  0
  9  8  2  0  0  0  0
 10  8  1  0  0  0  0
 11 10  1  0  0  0  0
 11 28  1  0  0  0  0
 12 11  1  0  0  0  0
 13 12  2  0  0  0  0
 13 29  1  0  0  0  0
 13 34  1  0  0  0  0
 14 12  1  0  0  0  0
 15 14  2  0  0  0  0
 15 30  1  0  0  0  0
 16 15  1  0  0  0  0
 17 16  2  0  0  0  0
 18 17  1  0  0  0  0
 19 18  1  0  0  0  0
 20 19  2  0  0  0  0
 20 16  1  0  0  0  0
 21 20  1  0  0  0  0
 21 31  1  0  0  0  0
 22 21  2  0  0  0  0
 22 14  1  0  0  0  0
 22 32  1  0  0  0  0
 23  6  2  0  0  0  0
 23  2  1  0  0  0  0
 23 33  1  0  0  0  0
M  END
>  <MOL Chiral Flag>
0

>  <energy>
34.818573317716648

$$$$
