>390.sdf
 OpenBabel10062213173D

 40 40  0  0  0  0  0  0  0  0999 V2000
   -1.7897   -3.6379    1.5594 C   0  0  0  0  0  0  0  0  0  0  0  0
   -2.7500   -2.9270    0.6027 C   0  0  0  0  0  0  0  0  0  0  0  0
   -2.3829   -1.4525    0.3746 C   0  0  0  0  0  0  0  0  0  0  0  0
   -1.0477   -1.2660   -0.3877 C   0  0  0  0  0  0  0  0  0  0  0  0
   -0.6536    0.1377   -0.5355 N   0  0  0  0  0  0  0  0  0  0  0  0
   -1.5476    1.0918   -1.1926 C   0  0  0  0  0  0  0  0  0  0  0  0
   -1.9901    2.1825   -0.2176 C   0  0  0  0  0  0  0  0  0  0  0  0
   -2.8261    3.1029   -0.8643 O   0  0  0  0  0  0  0  0  0  0  0  0
    0.7248    0.4972   -0.3310 C   0  0  0  0  0  0  0  0  0  0  0  0
    1.6242    0.5563   -1.4528 C   0  0  0  0  0  0  0  0  0  0  0  0
    2.9665    0.9270   -1.2362 C   0  0  0  0  0  0  0  0  0  0  0  0
    3.4471    1.2180    0.0404 C   0  0  0  0  0  0  0  0  0  0  0  0
    2.5824    1.1520    1.1286 C   0  0  0  0  0  0  0  0  0  0  0  0
    1.2270    0.8004    0.9801 C   0  0  0  0  0  0  0  0  0  0  0  0
    0.4032    0.7754    2.1562 N   0  0  0  0  0  0  0  0  0  0  0  0
    0.8664    1.0598    3.2203 O   0  0  0  0  0  0  0  0  0  0  0  0
   -0.7515    0.5039    2.0897 O   0  0  0  0  0  0  0  0  0  0  0  0
    4.8926    1.5931    0.2713 C   0  0  0  0  0  0  0  0  0  0  0  0
    5.6210    1.6128   -0.9058 F   0  0  0  0  0  0  0  0  0  0  0  0
    4.9576    2.8483    0.8483 F   0  0  0  0  0  0  0  0  0  0  0  0
    5.4718    0.6740    1.1279 F   0  0  0  0  0  0  0  0  0  0  0  0
    1.2202    0.2234   -2.7964 N   0  0  0  0  0  0  0  0  0  0  0  0
    0.1632   -0.2818   -3.0156 O   0  0  0  0  0  0  0  0  0  0  0  0
    1.9859    0.3658   -3.7026 O   0  0  0  0  0  0  0  0  0  0  0  0
   -2.1460   -4.6732    1.7402 H   0  0  0  0  0  0  0  0  0  0  0  0
   -0.7666   -3.7018    1.1391 H   0  0  0  0  0  0  0  0  0  0  0  0
   -1.7521   -3.1027    2.5328 H   0  0  0  0  0  0  0  0  0  0  0  0
   -2.7933   -3.4689   -0.3664 H   0  0  0  0  0  0  0  0  0  0  0  0
   -3.7621   -2.9585    1.0627 H   0  0  0  0  0  0  0  0  0  0  0  0
   -3.2031   -0.9935   -0.2153 H   0  0  0  0  0  0  0  0  0  0  0  0
   -2.3774   -0.9604    1.3608 H   0  0  0  0  0  0  0  0  0  0  0  0
   -1.1764   -1.7206   -1.3930 H   0  0  0  0  0  0  0  0  0  0  0  0
   -0.2289   -1.8119    0.1238 H   0  0  0  0  0  0  0  0  0  0  0  0
   -1.0463    1.5729   -2.0580 H   0  0  0  0  0  0  0  0  0  0  0  0
   -2.4529    0.5831   -1.5835 H   0  0  0  0  0  0  0  0  0  0  0  0
   -2.5202    1.7368    0.6541 H   0  0  0  0  0  0  0  0  0  0  0  0
   -1.1028    2.7258    0.1700 H   0  0  0  0  0  0  0  0  0  0  0  0
   -3.7106    2.6622   -0.9648 H   0  0  0  0  0  0  0  0  0  0  0  0
    3.6481    0.9710   -2.0753 H   0  0  0  0  0  0  0  0  0  0  0  0
    2.9759    1.3822    2.1113 H   0  0  0  0  0  0  0  0  0  0  0  0
  1 25  1  0  0  0  0
  1 26  1  0  0  0  0
  1 27  1  0  0  0  0
  2  1  1  0  0  0  0
  2 28  1  0  0  0  0
  2 29  1  0  0  0  0
  3  2  1  0  0  0  0
  3 30  1  0  0  0  0
  3 31  1  0  0  0  0
  4  3  1  0  0  0  0
  4 32  1  0  0  0  0
  4 33  1  0  0  0  0
  5  4  1  0  0  0  0
  6  5  1  0  0  0  0
  6 34  1  0  0  0  0
  6 35  1  0  0  0  0
  7  6  1  0  0  0  0
  7 36  1  0  0  0  0
  7 37  1  0  0  0  0
  8  7  1  0  0  0  0
  8 38  1  0  0  0  0
  9  5  1  0  0  0  0
 10  9  2  0  0  0  0
 11 10  1  0  0  0  0
 11 39  1  0  0  0  0
 12 11  2  0  0  0  0
 13 12  1  0  0  0  0
 13 40  1  0  0  0  0
 14 13  2  0  0  0  0
 14  9  1  0  0  0  0
 15 14  1  0  0  0  0
 16 15  2  0  0  0  0
 17 15  2  0  0  0  0
 18 12  1  0  0  0  0
 19 18  1  0  0  0  0
 20 18  1  0  0  0  0
 21 18  1  0  0  0  0
 22 10  1  0  0  0  0
 23 22  2  0  0  0  0
 24 22  2  0  0  0  0
M  END
>  <MOL Chiral Flag>
0

>  <energy>
166.76134297461925

$$$$
