>393.sdf
 OpenBabel10062213193D

 84 88  0  0  0  0  0  0  0  0999 V2000
   -5.7079   -4.0755    1.6631 C   0  0  0  0  0  0  0  0  0  0  0  0
   -5.0926   -3.1255    0.6288 C   0  0  1  0  0  0  0  0  0  0  0  0
   -6.1220   -2.0593    0.2377 C   0  0  0  0  0  0  0  0  0  0  0  0
   -5.4289   -0.9608   -0.5541 C   0  0  0  0  0  0  0  0  0  0  0  0
   -4.3331   -0.2290    0.3056 C   0  0  2  0  0  0  0  0  0  0  0  0
   -3.5685   -1.1538    1.0097 O   0  0  0  0  0  0  0  0  0  0  0  0
   -3.8111   -2.4917    1.1305 C   0  0  0  0  0  0  0  0  0  0  0  0
   -2.9355   -3.2103    1.5935 O   0  0  0  0  0  0  0  0  0  0  0  0
   -5.0463    0.6619    1.3581 C   0  0  0  0  0  0  0  0  0  0  0  0
   -3.4055    0.6045   -0.6936 C   0  0  1  0  0  0  0  0  0  0  0  0
   -4.2183    1.7504   -1.3645 C   0  0  0  0  0  0  0  0  0  0  0  0
   -2.0029    1.1998   -0.2466 C   0  0  1  0  0  0  0  0  0  0  0  0
   -1.8913    2.1741    0.9665 C   0  0  0  0  0  0  0  0  0  0  0  0
   -0.3980    2.1564    1.3991 C   0  0  0  0  0  0  0  0  0  0  0  0
    0.3412    1.5525    0.1962 C   0  0  2  0  0  0  0  0  0  0  0  0
   -0.6557    0.4156   -0.2318 C   0  0  2  0  0  0  0  0  0  0  0  0
   -0.2060   -0.1862   -1.6008 C   0  0  0  0  0  0  0  0  0  0  0  0
    1.3377   -0.1913   -1.8149 C   0  0  0  0  0  0  0  0  0  0  0  0
    2.2085    0.0868   -0.5766 C   0  0  0  0  0  0  0  0  0  0  0  0
    1.7091    0.8983    0.4169 C   0  0  0  0  0  0  0  0  0  0  0  0
    2.4535    1.1386    1.7201 C   0  0  0  0  0  0  0  0  0  0  0  0
    3.7030    0.2729    1.9139 C   0  0  0  0  0  0  0  0  0  0  0  0
    4.4814    0.2266    0.5967 C   0  0  2  0  0  0  0  0  0  0  0  0
    3.6177   -0.5464   -0.4906 C   0  0  2  0  0  0  0  0  0  0  0  0
    4.3729   -0.3621   -1.8422 C   0  0  0  0  0  0  0  0  0  0  0  0
    5.8340   -0.8480   -1.7849 C   0  0  0  0  0  0  0  0  0  0  0  0
    6.6272   -0.0604   -0.7225 C   0  0  1  0  0  0  0  0  0  0  0  0
    6.0122   -0.1668    0.7129 C   0  0  0  0  0  0  0  0  0  0  0  0
    6.7511    0.8693    1.6070 C   0  0  0  0  0  0  0  0  0  0  0  0
    6.2741   -1.5514    1.3589 C   0  0  0  0  0  0  0  0  0  0  0  0
    7.9919   -0.4072   -0.7413 O   0  0  0  0  0  0  0  0  0  0  0  0
    3.3621   -2.0607   -0.2408 C   0  0  0  0  0  0  0  0  0  0  0  0
   -0.6859   -0.7617    0.7984 C   0  0  0  0  0  0  0  0  0  0  0  0
    0.5590    2.7542   -0.7926 C   0  0  0  0  0  0  0  0  0  0  0  0
   -5.9765   -3.5258    2.5909 H   0  0  0  0  0  0  0  0  0  0  0  0
   -4.9900   -4.8826    1.9212 H   0  0  0  0  0  0  0  0  0  0  0  0
   -6.6233   -4.5501    1.2485 H   0  0  0  0  0  0  0  0  0  0  0  0
   -4.8173   -3.7203   -0.2703 H   0  0  0  0  0  0  0  0  0  0  0  0
   -6.6023   -1.6219    1.1345 H   0  0  0  0  0  0  0  0  0  0  0  0
   -6.9313   -2.5311   -0.3616 H   0  0  0  0  0  0  0  0  0  0  0  0
   -6.1954   -0.2497   -0.9248 H   0  0  0  0  0  0  0  0  0  0  0  0
   -4.9642   -1.4528   -1.4377 H   0  0  0  0  0  0  0  0  0  0  0  0
   -4.3570    1.2060    2.0093 H   0  0  0  0  0  0  0  0  0  0  0  0
   -5.7281    1.3947    0.8801 H   0  0  0  0  0  0  0  0  0  0  0  0
   -5.6548    0.0591    2.0581 H   0  0  0  0  0  0  0  0  0  0  0  0
   -3.1305   -0.0885   -1.5194 H   0  0  0  0  0  0  0  0  0  0  0  0
   -5.1448    1.3927   -1.8487 H   0  0  0  0  0  0  0  0  0  0  0  0
   -3.6366    2.2285   -2.1815 H   0  0  0  0  0  0  0  0  0  0  0  0
   -4.4710    2.5425   -0.6301 H   0  0  0  0  0  0  0  0  0  0  0  0
   -1.7804    1.8374   -1.1217 H   0  0  0  0  0  0  0  0  0  0  0  0
   -2.4436    1.8865    1.8698 H   0  0  0  0  0  0  0  0  0  0  0  0
   -2.2315    3.1798    0.6363 H   0  0  0  0  0  0  0  0  0  0  0  0
   -0.0134    3.1172    1.8047 H   0  0  0  0  0  0  0  0  0  0  0  0
   -0.3203    1.4451    2.2433 H   0  0  0  0  0  0  0  0  0  0  0  0
   -0.6339    0.3744   -2.4590 H   0  0  0  0  0  0  0  0  0  0  0  0
   -0.6185   -1.2139   -1.7094 H   0  0  0  0  0  0  0  0  0  0  0  0
    1.5812    0.6385   -2.5036 H   0  0  0  0  0  0  0  0  0  0  0  0
    1.6452   -1.0549   -2.4364 H   0  0  0  0  0  0  0  0  0  0  0  0
    2.7369    2.2134    1.7211 H   0  0  0  0  0  0  0  0  0  0  0  0
    1.8096    0.9490    2.6022 H   0  0  0  0  0  0  0  0  0  0  0  0
    3.4410   -0.7574    2.2265 H   0  0  0  0  0  0  0  0  0  0  0  0
    4.2620    0.7294    2.7520 H   0  0  0  0  0  0  0  0  0  0  0  0
    4.5285    1.2868    0.2468 H   0  0  0  0  0  0  0  0  0  0  0  0
    4.3804    0.7179   -2.1136 H   0  0  0  0  0  0  0  0  0  0  0  0
    3.8638   -0.9033   -2.6661 H   0  0  0  0  0  0  0  0  0  0  0  0
    5.8823   -1.9369   -1.5870 H   0  0  0  0  0  0  0  0  0  0  0  0
    6.3015   -0.6741   -2.7788 H   0  0  0  0  0  0  0  0  0  0  0  0
    6.5657    1.0043   -1.0449 H   0  0  0  0  0  0  0  0  0  0  0  0
    7.8441    0.6688    1.6259 H   0  0  0  0  0  0  0  0  0  0  0  0
    6.6067    1.9031    1.2258 H   0  0  0  0  0  0  0  0  0  0  0  0
    6.4128    0.8360    2.6613 H   0  0  0  0  0  0  0  0  0  0  0  0
    5.7902   -1.6184    2.3557 H   0  0  0  0  0  0  0  0  0  0  0  0
    7.3635   -1.7052    1.5138 H   0  0  0  0  0  0  0  0  0  0  0  0
    5.9641   -2.4059    0.7529 H   0  0  0  0  0  0  0  0  0  0  0  0
    8.0600   -1.3969   -0.7328 H   0  0  0  0  0  0  0  0  0  0  0  0
    4.2497   -2.6960   -0.2732 H   0  0  0  0  0  0  0  0  0  0  0  0
    2.8308   -2.2382    0.7149 H   0  0  0  0  0  0  0  0  0  0  0  0
    2.7196   -2.4836   -1.0402 H   0  0  0  0  0  0  0  0  0  0  0  0
   -1.3192   -1.5782    0.4136 H   0  0  0  0  0  0  0  0  0  0  0  0
   -1.0827   -0.4813    1.7935 H   0  0  0  0  0  0  0  0  0  0  0  0
    0.3135   -1.2191    0.9452 H   0  0  0  0  0  0  0  0  0  0  0  0
    1.2913    3.4592   -0.3424 H   0  0  0  0  0  0  0  0  0  0  0  0
   -0.3462    3.3645   -0.9816 H   0  0  0  0  0  0  0  0  0  0  0  0
    0.9586    2.4817   -1.7783 H   0  0  0  0  0  0  0  0  0  0  0  0
  1 35  1  0  0  0  0
  1 36  1  0  0  0  0
  1 37  1  0  0  0  0
  2  1  1  0  0  0  0
  2 38  1  6  0  0  0
  3  2  1  0  0  0  0
  3 39  1  0  0  0  0
  3 40  1  0  0  0  0
  4  3  1  0  0  0  0
  4 41  1  0  0  0  0
  4 42  1  0  0  0  0
  5  4  1  0  0  0  0
  5  9  1  1  0  0  0
  6  5  1  0  0  0  0
  7  6  1  0  0  0  0
  7  2  1  0  0  0  0
  8  7  2  0  0  0  0
  9 43  1  0  0  0  0
  9 44  1  0  0  0  0
  9 45  1  0  0  0  0
 10  5  1  0  0  0  0
 10 46  1  6  0  0  0
 11 10  1  0  0  0  0
 11 47  1  0  0  0  0
 11 48  1  0  0  0  0
 11 49  1  0  0  0  0
 12 10  1  0  0  0  0
 12 50  1  6  0  0  0
 13 12  1  0  0  0  0
 13 51  1  0  0  0  0
 13 52  1  0  0  0  0
 14 13  1  0  0  0  0
 14 53  1  0  0  0  0
 14 54  1  0  0  0  0
 15 14  1  0  0  0  0
 15 34  1  6  0  0  0
 16 15  1  0  0  0  0
 16 12  1  0  0  0  0
 16 33  1  1  0  0  0
 17 16  1  0  0  0  0
 17 55  1  0  0  0  0
 17 56  1  0  0  0  0
 18 17  1  0  0  0  0
 18 57  1  0  0  0  0
 18 58  1  0  0  0  0
 19 18  1  0  0  0  0
 20 19  2  0  0  0  0
 20 15  1  0  0  0  0
 21 20  1  0  0  0  0
 21 59  1  0  0  0  0
 21 60  1  0  0  0  0
 22 21  1  0  0  0  0
 22 61  1  0  0  0  0
 22 62  1  0  0  0  0
 23 22  1  0  0  0  0
 23 63  1  6  0  0  0
 24 23  1  0  0  0  0
 24 19  1  0  0  0  0
 24 32  1  1  0  0  0
 25 24  1  0  0  0  0
 25 64  1  0  0  0  0
 25 65  1  0  0  0  0
 26 25  1  0  0  0  0
 26 66  1  0  0  0  0
 26 67  1  0  0  0  0
 27 26  1  0  0  0  0
 27 68  1  6  0  0  0
 28 27  1  0  0  0  0
 28 23  1  0  0  0  0
 29 28  1  0  0  0  0
 29 69  1  0  0  0  0
 29 70  1  0  0  0  0
 29 71  1  0  0  0  0
 30 28  1  0  0  0  0
 30 72  1  0  0  0  0
 30 73  1  0  0  0  0
 30 74  1  0  0  0  0
 31 27  1  0  0  0  0
 31 75  1  0  0  0  0
 32 76  1  0  0  0  0
 32 77  1  0  0  0  0
 32 78  1  0  0  0  0
 33 79  1  0  0  0  0
 33 80  1  0  0  0  0
 33 81  1  0  0  0  0
 34 82  1  0  0  0  0
 34 83  1  0  0  0  0
 34 84  1  0  0  0  0
M  END
>  <MOL Chiral Flag>
0

>  <energy>
174.94490721181506

$$$$
