>396.sdf
 OpenBabel10062213203D

 30 32  0  0  0  0  0  0  0  0999 V2000
    4.6028   -1.7212   -1.7898 O   0  0  0  0  0  0  0  0  0  0  0  0
    4.2853   -1.5295   -0.4298 C   0  0  0  0  0  0  0  0  0  0  0  0
    3.0015   -0.7559   -0.2370 C   0  0  0  0  0  0  0  0  0  0  0  0
    3.0354    0.6347   -0.2149 C   0  0  0  0  0  0  0  0  0  0  0  0
    1.8712    1.3871   -0.0704 C   0  0  0  0  0  0  0  0  0  0  0  0
    2.0311    2.7328   -0.0637 O   0  0  0  0  0  0  0  0  0  0  0  0
    0.6034    0.7208    0.0516 C   0  0  0  0  0  0  0  0  0  0  0  0
   -0.6994    1.4547    0.1963 C   0  0  0  0  0  0  0  0  0  0  0  0
   -0.6970    2.6669    0.2235 O   0  0  0  0  0  0  0  0  0  0  0  0
   -2.0052    0.7197    0.3036 C   0  0  0  0  0  0  0  0  0  0  0  0
   -1.9856   -0.6982    0.2738 C   0  0  0  0  0  0  0  0  0  0  0  0
   -3.1889   -1.4216    0.3712 C   0  0  0  0  0  0  0  0  0  0  0  0
   -4.4039   -0.7612    0.4980 C   0  0  0  0  0  0  0  0  0  0  0  0
   -4.4436    0.6250    0.5290 C   0  0  0  0  0  0  0  0  0  0  0  0
   -3.2749    1.3833    0.4342 C   0  0  0  0  0  0  0  0  0  0  0  0
   -3.4317    2.7291    0.4726 O   0  0  0  0  0  0  0  0  0  0  0  0
   -0.7034   -1.4311    0.1390 C   0  0  0  0  0  0  0  0  0  0  0  0
   -0.7057   -2.6555    0.1138 O   0  0  0  0  0  0  0  0  0  0  0  0
    0.5808   -0.6968    0.0269 C   0  0  0  0  0  0  0  0  0  0  0  0
    1.7806   -1.4194   -0.1145 C   0  0  0  0  0  0  0  0  0  0  0  0
    3.9835   -1.1972   -2.3635 H   0  0  0  0  0  0  0  0  0  0  0  0
    4.1990   -2.5234    0.0567 H   0  0  0  0  0  0  0  0  0  0  0  0
    5.1219   -0.9910    0.0667 H   0  0  0  0  0  0  0  0  0  0  0  0
    3.9844    1.1484   -0.3148 H   0  0  0  0  0  0  0  0  0  0  0  0
    1.3528    3.4059    0.0194 H   0  0  0  0  0  0  0  0  0  0  0  0
   -3.1882   -2.5046    0.3489 H   0  0  0  0  0  0  0  0  0  0  0  0
   -5.3239   -1.3263    0.5726 H   0  0  0  0  0  0  0  0  0  0  0  0
   -5.3985    1.1263    0.6278 H   0  0  0  0  0  0  0  0  0  0  0  0
   -2.7497    3.4017    0.4151 H   0  0  0  0  0  0  0  0  0  0  0  0
    1.7662   -2.5031   -0.1421 H   0  0  0  0  0  0  0  0  0  0  0  0
  1 21  1  0  0  0  0
  2  1  1  0  0  0  0
  2 22  1  0  0  0  0
  2 23  1  0  0  0  0
  3  2  1  0  0  0  0
  4  3  2  0  0  0  0
  4 24  1  0  0  0  0
  5  4  1  0  0  0  0
  6  5  1  0  0  0  0
  6 25  1  0  0  0  0
  7  5  2  0  0  0  0
  8  7  1  0  0  0  0
  9  8  2  0  0  0  0
 10  8  1  0  0  0  0
 11 10  2  0  0  0  0
 12 11  1  0  0  0  0
 12 26  1  0  0  0  0
 13 12  2  0  0  0  0
 13 27  1  0  0  0  0
 14 13  1  0  0  0  0
 14 28  1  0  0  0  0
 15 14  2  0  0  0  0
 15 10  1  0  0  0  0
 16 15  1  0  0  0  0
 16 29  1  0  0  0  0
 17 11  1  0  0  0  0
 18 17  2  0  0  0  0
 19 17  1  0  0  0  0
 19  7  1  0  0  0  0
 20 19  2  0  0  0  0
 20  3  1  0  0  0  0
 20 30  1  0  0  0  0
M  END
>  <MOL Chiral Flag>
0

>  <energy>
47.420013418603077

$$$$
