>397.sdf
 OpenBabel10062213203D

 68 72  0  0  0  0  0  0  0  0999 V2000
   -5.6647    1.7456    1.4638 C   0  0  0  0  0  0  0  0  0  0  0  0
   -6.2087    0.5122    0.6920 C   0  0  0  0  0  0  0  0  0  0  0  0
   -7.1620    1.0357   -0.3978 C   0  0  0  0  0  0  0  0  0  0  0  0
   -7.0077   -0.3955    1.6438 C   0  0  0  0  0  0  0  0  0  0  0  0
   -5.2143   -0.2455    0.0008 O   0  0  0  0  0  0  0  0  0  0  0  0
   -4.0380   -0.5823    0.7239 C   0  0  0  0  0  0  0  0  0  0  0  0
   -2.8672    0.2822    0.3030 C   0  0  0  0  0  0  0  0  0  0  0  0
   -1.5664    0.0011    0.7630 C   0  0  0  0  0  0  0  0  0  0  0  0
   -0.4801    0.8052    0.3675 C   0  0  0  0  0  0  0  0  0  0  0  0
   -0.6938    1.9258   -0.4616 C   0  0  0  0  0  0  0  0  0  0  0  0
   -2.0005    2.1860   -0.9142 C   0  0  0  0  0  0  0  0  0  0  0  0
   -3.0594    1.3706   -0.5566 C   0  0  0  0  0  0  0  0  0  0  0  0
    0.4101    2.8419   -0.8872 C   0  0  0  0  0  0  0  0  0  0  0  0
    0.1081    4.1994   -1.1152 C   0  0  0  0  0  0  0  0  0  0  0  0
    1.0756    5.0841   -1.5508 C   0  0  0  0  0  0  0  0  0  0  0  0
    2.3675    4.6463   -1.7943 C   0  0  0  0  0  0  0  0  0  0  0  0
    3.2765    5.5374   -2.2567 N   0  0  0  0  0  0  0  0  0  0  0  0
    4.5406    5.1596   -2.5311 C   0  0  0  0  0  0  0  0  0  0  0  0
    4.9168    3.8773   -2.3383 N   0  0  0  0  0  0  0  0  0  0  0  0
    4.0730    2.9204   -1.8586 C   0  0  0  0  0  0  0  0  0  0  0  0
    4.5635    1.5746   -1.7317 N   0  0  0  0  0  0  0  0  0  0  0  0
    5.9671    1.2774   -1.8200 C   0  0  0  0  0  0  0  0  0  0  0  0
    6.9316    2.2046   -1.3941 C   0  0  0  0  0  0  0  0  0  0  0  0
    8.2827    1.9435   -1.5414 C   0  0  0  0  0  0  0  0  0  0  0  0
    8.7421    0.7560   -2.1092 C   0  0  0  0  0  0  0  0  0  0  0  0
   10.0965    0.6767   -2.2428 O   0  0  0  0  0  0  0  0  0  0  0  0
   10.9993   -0.2427   -2.7398 C   0  0  0  0  0  0  0  0  0  0  0  0
   12.0915   -0.5187   -1.7335 C   0  0  0  0  0  0  0  0  0  0  0  0
   13.2114   -1.2668   -2.1320 C   0  0  0  0  0  0  0  0  0  0  0  0
   14.2501   -1.5194   -1.2308 C   0  0  0  0  0  0  0  0  0  0  0  0
   14.1767   -1.0359    0.0777 C   0  0  0  0  0  0  0  0  0  0  0  0
   13.0654   -0.2957    0.4882 C   0  0  0  0  0  0  0  0  0  0  0  0
   12.9948    0.1708    1.7594 F   0  0  0  0  0  0  0  0  0  0  0  0
   12.0270   -0.0322   -0.4106 C   0  0  0  0  0  0  0  0  0  0  0  0
    7.7792   -0.2252   -2.5049 C   0  0  0  0  0  0  0  0  0  0  0  0
    8.1785   -1.7781   -3.2234 Cl  0  0  0  0  0  0  0  0  0  0  0  0
    6.4037    0.0496   -2.3440 C   0  0  0  0  0  0  0  0  0  0  0  0
    2.7267    3.2890   -1.5749 C   0  0  0  0  0  0  0  0  0  0  0  0
    1.7373    2.3898   -1.0953 C   0  0  0  0  0  0  0  0  0  0  0  0
   -4.9726    1.4621    2.2811 H   0  0  0  0  0  0  0  0  0  0  0  0
   -5.1464    2.4578    0.7924 H   0  0  0  0  0  0  0  0  0  0  0  0
   -6.5054    2.3041    1.9297 H   0  0  0  0  0  0  0  0  0  0  0  0
   -6.6094    1.6821   -1.1148 H   0  0  0  0  0  0  0  0  0  0  0  0
   -7.5959    0.1895   -0.9738 H   0  0  0  0  0  0  0  0  0  0  0  0
   -7.9944    1.6288    0.0379 H   0  0  0  0  0  0  0  0  0  0  0  0
   -7.8447    0.1714    2.1077 H   0  0  0  0  0  0  0  0  0  0  0  0
   -6.3668   -0.7860    2.4597 H   0  0  0  0  0  0  0  0  0  0  0  0
   -7.4349   -1.2572    1.0879 H   0  0  0  0  0  0  0  0  0  0  0  0
   -3.7993   -1.6361    0.4690 H   0  0  0  0  0  0  0  0  0  0  0  0
   -4.1673   -0.5647    1.8265 H   0  0  0  0  0  0  0  0  0  0  0  0
   -1.3945   -0.8428    1.4206 H   0  0  0  0  0  0  0  0  0  0  0  0
    0.5104    0.5706    0.7357 H   0  0  0  0  0  0  0  0  0  0  0  0
   -2.2104    3.0126   -1.5770 H   0  0  0  0  0  0  0  0  0  0  0  0
   -4.0344    1.6084   -0.9536 H   0  0  0  0  0  0  0  0  0  0  0  0
   -0.8836    4.5910   -0.9395 H   0  0  0  0  0  0  0  0  0  0  0  0
    0.8136    6.1225   -1.7138 H   0  0  0  0  0  0  0  0  0  0  0  0
    5.2503    5.8792   -2.9135 H   0  0  0  0  0  0  0  0  0  0  0  0
    3.8957    0.7917   -1.7426 H   0  0  0  0  0  0  0  0  0  0  0  0
    6.6512    3.1414   -0.9381 H   0  0  0  0  0  0  0  0  0  0  0  0
    8.9962    2.6924   -1.2196 H   0  0  0  0  0  0  0  0  0  0  0  0
   11.4770    0.2308   -3.6240 H   0  0  0  0  0  0  0  0  0  0  0  0
   10.5644   -1.1921   -3.0652 H   0  0  0  0  0  0  0  0  0  0  0  0
   13.2831   -1.6419   -3.1456 H   0  0  0  0  0  0  0  0  0  0  0  0
   15.1141   -2.0885   -1.5483 H   0  0  0  0  0  0  0  0  0  0  0  0
   14.9821   -1.2341    0.7730 H   0  0  0  0  0  0  0  0  0  0  0  0
   11.1776    0.5461   -0.0703 H   0  0  0  0  0  0  0  0  0  0  0  0
    5.6726   -0.6827   -2.6657 H   0  0  0  0  0  0  0  0  0  0  0  0
    1.9719    1.3504   -0.9234 H   0  0  0  0  0  0  0  0  0  0  0  0
  1 40  1  0  0  0  0
  1 41  1  0  0  0  0
  1 42  1  0  0  0  0
  2  1  1  0  0  0  0
  3  2  1  0  0  0  0
  3 43  1  0  0  0  0
  3 44  1  0  0  0  0
  3 45  1  0  0  0  0
  4  2  1  0  0  0  0
  4 46  1  0  0  0  0
  4 47  1  0  0  0  0
  4 48  1  0  0  0  0
  5  2  1  0  0  0  0
  6  5  1  0  0  0  0
  6 49  1  0  0  0  0
  6 50  1  0  0  0  0
  7  6  1  0  0  0  0
  8  7  2  0  0  0  0
  8 51  1  0  0  0  0
  9  8  1  0  0  0  0
  9 52  1  0  0  0  0
 10  9  2  0  0  0  0
 11 10  1  0  0  0  0
 11 53  1  0  0  0  0
 12 11  2  0  0  0  0
 12  7  1  0  0  0  0
 12 54  1  0  0  0  0
 13 10  1  0  0  0  0
 14 13  2  0  0  0  0
 14 55  1  0  0  0  0
 15 14  1  0  0  0  0
 15 56  1  0  0  0  0
 16 15  2  0  0  0  0
 17 16  1  0  0  0  0
 18 17  2  0  0  0  0
 18 57  1  0  0  0  0
 19 18  1  0  0  0  0
 20 19  2  0  0  0  0
 21 20  1  0  0  0  0
 21 58  1  0  0  0  0
 22 21  1  0  0  0  0
 23 22  2  0  0  0  0
 23 59  1  0  0  0  0
 24 23  1  0  0  0  0
 24 60  1  0  0  0  0
 25 24  2  0  0  0  0
 26 25  1  0  0  0  0
 27 26  1  0  0  0  0
 27 61  1  0  0  0  0
 27 62  1  0  0  0  0
 28 27  1  0  0  0  0
 29 28  2  0  0  0  0
 29 63  1  0  0  0  0
 30 29  1  0  0  0  0
 30 64  1  0  0  0  0
 31 30  2  0  0  0  0
 31 65  1  0  0  0  0
 32 31  1  0  0  0  0
 33 32  1  0  0  0  0
 34 32  2  0  0  0  0
 34 28  1  0  0  0  0
 34 66  1  0  0  0  0
 35 25  1  0  0  0  0
 36 35  1  0  0  0  0
 37 35  2  0  0  0  0
 37 22  1  0  0  0  0
 37 67  1  0  0  0  0
 38 20  1  0  0  0  0
 38 16  1  0  0  0  0
 39 38  2  0  0  0  0
 39 13  1  0  0  0  0
 39 68  1  0  0  0  0
M  END
>  <MOL Chiral Flag>
0

>  <energy>
86.662941878464025

$$$$
