>4.sdf
 OpenBabel10052217543D

 22 22  0  0  0  0  0  0  0  0999 V2000
   -4.6750    0.4697   -0.0948 N   0  0  0  0  0  0  0  0  0  0  0  0
   -3.2881    0.3801    0.1853 C   0  3  0  0  0  0  0  0  0  0  0  0
   -2.7747    1.1964    1.0408 N   0  0  0  0  0  0  0  0  0  0  0  0
   -2.4948   -0.5727   -0.5379 N   0  0  0  0  0  0  0  0  0  0  0  0
   -1.1255   -0.4695   -0.6581 N   0  0  0  0  0  0  0  0  0  0  0  0
   -0.3060   -0.5458    0.3337 C   0  0  0  0  0  0  0  0  0  0  0  0
    1.1483   -0.3314    0.0948 C   0  0  0  0  0  0  0  0  0  0  0  0
    1.5952   -0.0264   -1.2076 C   0  0  0  0  0  0  0  0  0  0  0  0
    2.9451    0.2015   -1.4626 C   0  0  0  0  0  0  0  0  0  0  0  0
    3.8742    0.1290   -0.4286 C   0  0  0  0  0  0  0  0  0  0  0  0
    3.4596   -0.1745    0.8719 C   0  0  0  0  0  0  0  0  0  0  0  0
    4.6705   -0.2531    2.1460 Cl  0  0  0  0  0  0  0  0  0  0  0  0
    2.0950   -0.4067    1.1451 C   0  0  0  0  0  0  0  0  0  0  0  0
    1.5919   -0.7829    2.7956 Cl  0  0  0  0  0  0  0  0  0  0  0  0
   -5.2346    1.1175    0.3915 H   0  0  0  0  0  0  0  0  0  0  0  0
   -5.0786   -0.1158   -0.7756 H   0  0  0  0  0  0  0  0  0  0  0  0
   -3.3511    1.8363    1.5179 H   0  0  0  0  0  0  0  0  0  0  0  0
   -2.9488   -1.3336   -0.9671 H   0  0  0  0  0  0  0  0  0  0  0  0
   -0.6537   -0.7533    1.2829 H   0  0  0  0  0  0  0  0  0  0  0  0
    0.9139    0.0286   -1.9807 H   0  0  0  0  0  0  0  0  0  0  0  0
    3.2574    0.4247   -2.4205 H   0  0  0  0  0  0  0  0  0  0  0  0
    4.8732    0.3000   -0.6226 H   0  0  0  0  0  0  0  0  0  0  0  0
  1 15  1  0  0  0  0
  1 16  1  0  0  0  0
  2  1  1  0  0  0  0
  3  2  2  0  0  0  0
  3 17  1  0  0  0  0
  4  2  1  0  0  0  0
  4 18  1  0  0  0  0
  5  4  1  0  0  0  0
  6  5  2  0  0  0  0
  6 19  1  0  0  0  0
  7  6  1  0  0  0  0
  8  7  2  0  0  0  0
  8 20  1  0  0  0  0
  9  8  1  0  0  0  0
  9 21  1  0  0  0  0
 10  9  2  0  0  0  0
 10 22  1  0  0  0  0
 11 10  1  0  0  0  0
 12 11  1  0  0  0  0
 13 11  2  0  0  0  0
 13  7  1  0  0  0  0
 14 13  1  0  0  0  0
M  CHG  1   2   1
M  END
>  <MOL Chiral Flag>
0

>  <energy>
-40.816203194651422

$$$$
