>402.sdf
 OpenBabel10062213233D

 60 62  0  0  0  0  0  0  0  0999 V2000
    3.0534   -1.1409    0.4154 C   0  0  0  0  0  0  0  0  0  0  0  0
    4.3970   -0.3806    0.3231 C   0  0  0  0  0  0  0  0  0  0  0  0
    4.4459    0.9493   -0.4455 C   0  0  0  0  0  0  0  0  0  0  0  0
    3.7993    2.1431    0.2709 C   0  0  0  0  0  0  0  0  0  0  0  0
    2.3381    2.1958    0.1444 N   0  3  0  0  0  0  0  0  0  0  0  0
    1.7784    2.4046   -1.0890 C   0  0  0  0  0  0  0  0  0  0  0  0
    0.3984    2.5670   -1.2255 C   0  0  0  0  0  0  0  0  0  0  0  0
   -0.4222    2.5039   -0.0917 C   0  0  0  0  0  0  0  0  0  0  0  0
   -1.8318    2.7096   -0.1685 N   0  0  0  0  0  0  0  0  0  0  0  0
   -2.4503    3.5154   -1.2083 C   0  0  0  0  0  0  0  0  0  0  0  0
   -3.1517    2.6974   -2.3095 C   0  0  0  0  0  0  0  0  0  0  0  0
   -4.1553    1.6662   -1.7635 C   0  0  0  0  0  0  0  0  0  0  0  0
   -3.4563    0.3447   -1.4209 C   0  0  0  0  0  0  0  0  0  0  0  0
   -4.3917   -0.6470   -0.7215 C   0  0  0  0  0  0  0  0  0  0  0  0
   -3.7571   -1.9483   -0.6233 N   0  0  0  0  0  0  0  0  0  0  0  0
   -2.5484   -2.2079    0.0974 C   0  0  0  0  0  0  0  0  0  0  0  0
   -1.9794   -1.2858    0.9967 C   0  0  0  0  0  0  0  0  0  0  0  0
   -0.7853   -1.6015    1.6576 C   0  0  0  0  0  0  0  0  0  0  0  0
   -0.1715   -2.8054    1.4394 N   0  3  0  0  0  0  0  0  0  0  0  0
    1.0389   -3.1774    2.1878 C   0  0  0  0  0  0  0  0  0  0  0  0
    2.2431   -3.5213    1.2838 C   0  0  0  0  0  0  0  0  0  0  0  0
    3.3452   -2.4571    1.1639 C   0  0  0  0  0  0  0  0  0  0  0  0
   -0.7237   -3.7139    0.5799 C   0  0  0  0  0  0  0  0  0  0  0  0
   -1.9062   -3.4329   -0.0973 C   0  0  0  0  0  0  0  0  0  0  0  0
    0.1666    2.2504    1.1550 C   0  0  0  0  0  0  0  0  0  0  0  0
    1.5510    2.1132    1.2558 C   0  0  0  0  0  0  0  0  0  0  0  0
    2.2881   -0.5517    0.9603 H   0  0  0  0  0  0  0  0  0  0  0  0
    2.6873   -1.3618   -0.6100 H   0  0  0  0  0  0  0  0  0  0  0  0
    5.1124   -1.0504   -0.2048 H   0  0  0  0  0  0  0  0  0  0  0  0
    4.7994   -0.2066    1.3465 H   0  0  0  0  0  0  0  0  0  0  0  0
    4.0929    0.8394   -1.4920 H   0  0  0  0  0  0  0  0  0  0  0  0
    5.5297    1.2003   -0.4954 H   0  0  0  0  0  0  0  0  0  0  0  0
    4.1286    2.1432    1.3345 H   0  0  0  0  0  0  0  0  0  0  0  0
    4.1981    3.0801   -0.1785 H   0  0  0  0  0  0  0  0  0  0  0  0
    2.4048    2.4812   -1.9691 H   0  0  0  0  0  0  0  0  0  0  0  0
   -0.0166    2.7493   -2.2078 H   0  0  0  0  0  0  0  0  0  0  0  0
   -2.3522    2.6458    0.7202 H   0  0  0  0  0  0  0  0  0  0  0  0
   -1.7259    4.2271   -1.6590 H   0  0  0  0  0  0  0  0  0  0  0  0
   -3.2257    4.1461   -0.7194 H   0  0  0  0  0  0  0  0  0  0  0  0
   -2.4258    2.2010   -2.9899 H   0  0  0  0  0  0  0  0  0  0  0  0
   -3.7113    3.4435   -2.9147 H   0  0  0  0  0  0  0  0  0  0  0  0
   -4.8990    1.4253   -2.5547 H   0  0  0  0  0  0  0  0  0  0  0  0
   -4.7042    2.1011   -0.8994 H   0  0  0  0  0  0  0  0  0  0  0  0
   -2.5766    0.5176   -0.7898 H   0  0  0  0  0  0  0  0  0  0  0  0
   -3.0889   -0.1018   -2.3716 H   0  0  0  0  0  0  0  0  0  0  0  0
   -5.3104   -0.7572   -1.3397 H   0  0  0  0  0  0  0  0  0  0  0  0
   -4.6948   -0.2783    0.2820 H   0  0  0  0  0  0  0  0  0  0  0  0
   -4.1781   -2.7189   -1.1646 H   0  0  0  0  0  0  0  0  0  0  0  0
   -2.4520   -0.3367    1.2072 H   0  0  0  0  0  0  0  0  0  0  0  0
   -0.3642   -0.8900    2.3563 H   0  0  0  0  0  0  0  0  0  0  0  0
    0.7668   -4.1022    2.7454 H   0  0  0  0  0  0  0  0  0  0  0  0
    1.3314   -2.4314    2.9587 H   0  0  0  0  0  0  0  0  0  0  0  0
    1.9372   -3.9211    0.2945 H   0  0  0  0  0  0  0  0  0  0  0  0
    2.7663   -4.3579    1.7993 H   0  0  0  0  0  0  0  0  0  0  0  0
    3.7060   -2.2127    2.1881 H   0  0  0  0  0  0  0  0  0  0  0  0
    4.1779   -2.9678    0.6292 H   0  0  0  0  0  0  0  0  0  0  0  0
   -0.2554   -4.6794    0.4232 H   0  0  0  0  0  0  0  0  0  0  0  0
   -2.3221   -4.1687   -0.7736 H   0  0  0  0  0  0  0  0  0  0  0  0
   -0.4408    2.1962    2.0492 H   0  0  0  0  0  0  0  0  0  0  0  0
    1.9934    1.9567    2.2332 H   0  0  0  0  0  0  0  0  0  0  0  0
  1 27  1  0  0  0  0
  1 28  1  0  0  0  0
  2  1  1  0  0  0  0
  2 29  1  0  0  0  0
  2 30  1  0  0  0  0
  3  2  1  0  0  0  0
  3 31  1  0  0  0  0
  3 32  1  0  0  0  0
  4  3  1  0  0  0  0
  4 33  1  0  0  0  0
  4 34  1  0  0  0  0
  5  4  1  0  0  0  0
  6  5  2  0  0  0  0
  6 35  1  0  0  0  0
  7  6  1  0  0  0  0
  7 36  1  0  0  0  0
  8  7  2  0  0  0  0
  9  8  1  0  0  0  0
  9 37  1  0  0  0  0
 10  9  1  0  0  0  0
 10 38  1  0  0  0  0
 10 39  1  0  0  0  0
 11 10  1  0  0  0  0
 11 40  1  0  0  0  0
 11 41  1  0  0  0  0
 12 11  1  0  0  0  0
 12 42  1  0  0  0  0
 12 43  1  0  0  0  0
 13 12  1  0  0  0  0
 13 44  1  0  0  0  0
 13 45  1  0  0  0  0
 14 13  1  0  0  0  0
 14 46  1  0  0  0  0
 14 47  1  0  0  0  0
 15 14  1  0  0  0  0
 15 48  1  0  0  0  0
 16 15  1  0  0  0  0
 17 16  2  0  0  0  0
 17 49  1  0  0  0  0
 18 17  1  0  0  0  0
 18 50  1  0  0  0  0
 19 18  2  0  0  0  0
 20 19  1  0  0  0  0
 20 51  1  0  0  0  0
 20 52  1  0  0  0  0
 21 20  1  0  0  0  0
 21 53  1  0  0  0  0
 21 54  1  0  0  0  0
 22 21  1  0  0  0  0
 22  1  1  0  0  0  0
 22 55  1  0  0  0  0
 22 56  1  0  0  0  0
 23 19  1  0  0  0  0
 23 57  1  0  0  0  0
 24 23  2  0  0  0  0
 24 16  1  0  0  0  0
 24 58  1  0  0  0  0
 25  8  1  0  0  0  0
 25 59  1  0  0  0  0
 26 25  2  0  0  0  0
 26  5  1  0  0  0  0
 26 60  1  0  0  0  0
M  CHG  2   5   1  19   1
M  END
>  <MOL Chiral Flag>
0

>  <energy>
124.95930256079299

$$$$
