>403.sdf
 OpenBabel10062213233D

 51 54  0  0  0  0  0  0  0  0999 V2000
   -2.7035   -6.9760   -1.1844 C   0  0  0  0  0  0  0  0  0  0  0  0
   -3.0946   -5.9706   -0.1045 C   0  0  0  0  0  0  0  0  0  0  0  0
   -2.2205   -4.7150   -0.1804 C   0  0  0  0  0  0  0  0  0  0  0  0
   -2.6774   -3.6528    0.8241 C   0  0  0  0  0  0  0  0  0  0  0  0
   -1.8078   -2.4944    0.7221 N   0  0  0  0  0  0  0  0  0  0  0  0
   -2.2352   -1.2828    0.2546 C   0  0  0  0  0  0  0  0  0  0  0  0
   -3.3939   -1.1306   -0.1018 O   0  0  0  0  0  0  0  0  0  0  0  0
   -1.2725   -0.1599    0.1238 C   0  0  0  0  0  0  0  0  0  0  0  0
   -0.0112   -0.2960    0.6345 N   0  0  0  0  0  0  0  0  0  0  0  0
    0.9629    0.6583    0.5227 C   0  0  0  0  0  0  0  0  0  0  0  0
    0.6174    1.8520   -0.1458 C   0  0  0  0  0  0  0  0  0  0  0  0
    1.3552    2.9716   -0.3652 N   0  0  0  0  0  0  0  0  0  0  0  0
    0.5475    3.8175   -1.0404 C   0  0  0  0  0  0  0  0  0  0  0  0
   -0.6929    3.2595   -1.2400 C   0  0  0  0  0  0  0  0  0  0  0  0
   -1.7051    3.9430   -1.9107 C   0  0  0  0  0  0  0  0  0  0  0  0
   -1.4217    5.2369   -2.3887 C   0  0  0  0  0  0  0  0  0  0  0  0
   -0.1455    5.8121   -2.1824 C   0  0  0  0  0  0  0  0  0  0  0  0
    0.8556    5.0971   -1.4975 C   0  0  0  0  0  0  0  0  0  0  0  0
   -0.6538    2.0128   -0.6603 C   0  0  0  0  0  0  0  0  0  0  0  0
   -1.6282    1.0284   -0.5463 C   0  0  0  0  0  0  0  0  0  0  0  0
    2.3009    0.3463    1.0993 C   0  0  0  0  0  0  0  0  0  0  0  0
    3.5003    0.8380    0.5506 C   0  0  0  0  0  0  0  0  0  0  0  0
    4.7343    0.4749    1.1013 C   0  0  0  0  0  0  0  0  0  0  0  0
    4.7925   -0.3840    2.2176 C   0  0  0  0  0  0  0  0  0  0  0  0
    5.9676   -0.7738    2.7783 O   0  0  0  0  0  0  0  0  0  0  0  0
    7.2211   -0.4664    2.2917 C   0  0  0  0  0  0  0  0  0  0  0  0
    3.6028   -0.8704    2.7628 C   0  0  0  0  0  0  0  0  0  0  0  0
    2.3725   -0.5224    2.2052 C   0  0  0  0  0  0  0  0  0  0  0  0
   -2.8434   -6.5274   -2.1917 H   0  0  0  0  0  0  0  0  0  0  0  0
   -3.3492   -7.8758   -1.1074 H   0  0  0  0  0  0  0  0  0  0  0  0
   -1.6429   -7.2837   -1.0674 H   0  0  0  0  0  0  0  0  0  0  0  0
   -4.1612   -5.6954   -0.2536 H   0  0  0  0  0  0  0  0  0  0  0  0
   -2.9827   -6.4412    0.8966 H   0  0  0  0  0  0  0  0  0  0  0  0
   -1.1597   -4.9899    0.0124 H   0  0  0  0  0  0  0  0  0  0  0  0
   -2.2939   -4.2780   -1.2011 H   0  0  0  0  0  0  0  0  0  0  0  0
   -3.7353   -3.3948    0.6037 H   0  0  0  0  0  0  0  0  0  0  0  0
   -2.6309   -4.0473    1.8625 H   0  0  0  0  0  0  0  0  0  0  0  0
   -0.8169   -2.6204    0.9755 H   0  0  0  0  0  0  0  0  0  0  0  0
    2.3314    3.1838   -0.0753 H   0  0  0  0  0  0  0  0  0  0  0  0
   -2.6793    3.4966   -2.0622 H   0  0  0  0  0  0  0  0  0  0  0  0
   -2.1846    5.7950   -2.9156 H   0  0  0  0  0  0  0  0  0  0  0  0
    0.0624    6.8077   -2.5525 H   0  0  0  0  0  0  0  0  0  0  0  0
    1.8345    5.5284   -1.3336 H   0  0  0  0  0  0  0  0  0  0  0  0
   -2.6155    1.1729   -0.9657 H   0  0  0  0  0  0  0  0  0  0  0  0
    3.5009    1.4601   -0.3281 H   0  0  0  0  0  0  0  0  0  0  0  0
    5.6378    0.8563    0.6456 H   0  0  0  0  0  0  0  0  0  0  0  0
    7.3439   -0.8827    1.2687 H   0  0  0  0  0  0  0  0  0  0  0  0
    7.9858   -0.9250    2.9515 H   0  0  0  0  0  0  0  0  0  0  0  0
    7.3758    0.6331    2.2813 H   0  0  0  0  0  0  0  0  0  0  0  0
    3.6320   -1.5335    3.6185 H   0  0  0  0  0  0  0  0  0  0  0  0
    1.4690   -0.9247    2.6473 H   0  0  0  0  0  0  0  0  0  0  0  0
  1 29  1  0  0  0  0
  1 30  1  0  0  0  0
  1 31  1  0  0  0  0
  2  1  1  0  0  0  0
  2 32  1  0  0  0  0
  2 33  1  0  0  0  0
  3  2  1  0  0  0  0
  3 34  1  0  0  0  0
  3 35  1  0  0  0  0
  4  3  1  0  0  0  0
  4 36  1  0  0  0  0
  4 37  1  0  0  0  0
  5  4  1  0  0  0  0
  5 38  1  0  0  0  0
  6  5  1  0  0  0  0
  7  6  2  0  0  0  0
  8  6  1  0  0  0  0
  9  8  2  0  0  0  0
 10  9  1  0  0  0  0
 11 10  2  0  0  0  0
 12 11  1  0  0  0  0
 12 39  1  0  0  0  0
 13 12  1  0  0  0  0
 14 13  2  0  0  0  0
 15 14  1  0  0  0  0
 15 40  1  0  0  0  0
 16 15  2  0  0  0  0
 16 41  1  0  0  0  0
 17 16  1  0  0  0  0
 17 42  1  0  0  0  0
 18 17  2  0  0  0  0
 18 13  1  0  0  0  0
 18 43  1  0  0  0  0
 19 14  1  0  0  0  0
 19 11  1  0  0  0  0
 20 19  2  0  0  0  0
 20  8  1  0  0  0  0
 20 44  1  0  0  0  0
 21 10  1  0  0  0  0
 22 21  2  0  0  0  0
 22 45  1  0  0  0  0
 23 22  1  0  0  0  0
 23 46  1  0  0  0  0
 24 23  2  0  0  0  0
 25 24  1  0  0  0  0
 26 25  1  0  0  0  0
 26 47  1  0  0  0  0
 26 48  1  0  0  0  0
 26 49  1  0  0  0  0
 27 24  1  0  0  0  0
 27 50  1  0  0  0  0
 28 27  2  0  0  0  0
 28 21  1  0  0  0  0
 28 51  1  0  0  0  0
M  END
>  <MOL Chiral Flag>
0

>  <energy>
68.089981018146659

$$$$
