>404.sdf
 OpenBabel10062213233D

 38 40  0  0  0  0  0  0  0  0999 V2000
   -4.9158    1.9575   -1.3567 C   0  0  0  0  0  0  0  0  0  0  0  0
   -5.1041    0.6665   -0.9074 O   0  0  0  0  0  0  0  0  0  0  0  0
   -4.1251   -0.1280   -0.4000 C   0  0  0  0  0  0  0  0  0  0  0  0
   -4.4977   -1.2700    0.3056 C   0  0  0  0  0  0  0  0  0  0  0  0
   -3.5477   -2.1072    0.9035 C   0  0  0  0  0  0  0  0  0  0  0  0
   -4.0236   -3.1696    1.5937 O   0  0  0  0  0  0  0  0  0  0  0  0
   -2.1539   -1.7970    0.7686 C   0  0  0  0  0  0  0  0  0  0  0  0
   -1.0958   -2.5693    1.3179 C   0  0  0  0  0  0  0  0  0  0  0  0
   -1.3016   -3.5701    1.9746 O   0  0  0  0  0  0  0  0  0  0  0  0
    0.2255   -2.1766    1.1037 C   0  0  0  0  0  0  0  0  0  0  0  0
    0.4938   -1.0115    0.3773 C   0  0  0  0  0  0  0  0  0  0  0  0
   -0.5131   -0.2926   -0.1067 O   0  0  0  0  0  0  0  0  0  0  0  0
   -1.7891   -0.6359    0.0378 C   0  0  0  0  0  0  0  0  0  0  0  0
   -2.7634    0.1810   -0.5375 C   0  0  0  0  0  0  0  0  0  0  0  0
    1.8813   -0.5380    0.1487 C   0  0  0  0  0  0  0  0  0  0  0  0
    2.1164    0.8347   -0.0147 C   0  0  0  0  0  0  0  0  0  0  0  0
    3.4234    1.3254   -0.2095 C   0  0  0  0  0  0  0  0  0  0  0  0
    3.6768    2.6569   -0.3332 O   0  0  0  0  0  0  0  0  0  0  0  0
    2.7218    3.6534   -0.3414 C   0  0  0  0  0  0  0  0  0  0  0  0
    4.4976    0.4165   -0.2779 C   0  0  0  0  0  0  0  0  0  0  0  0
    5.7603    0.8585   -0.4706 O   0  0  0  0  0  0  0  0  0  0  0  0
    4.2600   -0.9641   -0.1462 C   0  0  0  0  0  0  0  0  0  0  0  0
    5.2700   -1.8555   -0.2439 O   0  0  0  0  0  0  0  0  0  0  0  0
    2.9634   -1.4327    0.0838 C   0  0  0  0  0  0  0  0  0  0  0  0
   -5.8945    2.3823   -1.6582 H   0  0  0  0  0  0  0  0  0  0  0  0
   -4.2315    1.9837   -2.2302 H   0  0  0  0  0  0  0  0  0  0  0  0
   -4.5067    2.5786   -0.5301 H   0  0  0  0  0  0  0  0  0  0  0  0
   -5.5507   -1.5023    0.4130 H   0  0  0  0  0  0  0  0  0  0  0  0
   -3.5070   -3.8027    2.0987 H   0  0  0  0  0  0  0  0  0  0  0  0
    1.0293   -2.7612    1.5337 H   0  0  0  0  0  0  0  0  0  0  0  0
   -2.4475    1.0567   -1.0882 H   0  0  0  0  0  0  0  0  0  0  0  0
    1.2811    1.5198    0.0430 H   0  0  0  0  0  0  0  0  0  0  0  0
    2.1464    3.6531    0.6096 H   0  0  0  0  0  0  0  0  0  0  0  0
    2.0371    3.5128   -1.2046 H   0  0  0  0  0  0  0  0  0  0  0  0
    3.2252    4.6359   -0.4451 H   0  0  0  0  0  0  0  0  0  0  0  0
    5.9763    1.7984   -0.5472 H   0  0  0  0  0  0  0  0  0  0  0  0
    6.1788   -1.5887   -0.4410 H   0  0  0  0  0  0  0  0  0  0  0  0
    2.8039   -2.4988    0.1769 H   0  0  0  0  0  0  0  0  0  0  0  0
  1 25  1  0  0  0  0
  1 26  1  0  0  0  0
  1 27  1  0  0  0  0
  2  1  1  0  0  0  0
  3  2  1  0  0  0  0
  4  3  2  0  0  0  0
  4 28  1  0  0  0  0
  5  4  1  0  0  0  0
  6  5  1  0  0  0  0
  6 29  1  0  0  0  0
  7  5  2  0  0  0  0
  8  7  1  0  0  0  0
  9  8  2  0  0  0  0
 10  8  1  0  0  0  0
 10 30  1  0  0  0  0
 11 10  2  0  0  0  0
 12 11  1  0  0  0  0
 13 12  1  0  0  0  0
 13  7  1  0  0  0  0
 14 13  2  0  0  0  0
 14  3  1  0  0  0  0
 14 31  1  0  0  0  0
 15 11  1  0  0  0  0
 16 15  2  0  0  0  0
 16 32  1  0  0  0  0
 17 16  1  0  0  0  0
 18 17  1  0  0  0  0
 19 18  1  0  0  0  0
 19 33  1  0  0  0  0
 19 34  1  0  0  0  0
 19 35  1  0  0  0  0
 20 17  2  0  0  0  0
 21 20  1  0  0  0  0
 21 36  1  0  0  0  0
 22 20  1  0  0  0  0
 23 22  1  0  0  0  0
 23 37  1  0  0  0  0
 24 22  2  0  0  0  0
 24 15  1  0  0  0  0
 24 38  1  0  0  0  0
M  END
>  <MOL Chiral Flag>
0

>  <energy>
43.412855645319574

$$$$
