>406.sdf
 OpenBabel10062213243D

 35 39  0  0  0  0  0  0  0  0999 V2000
    3.1473    0.8126   -1.2833 H   0  0  0  0  0  0  0  0  0  0  0  0
    2.6387    0.0610   -0.6407 C   0  0  2  0  0  0  0  0  0  0  0  0
    2.6673    0.4838    0.8305 C   0  0  0  0  0  0  0  0  0  0  0  0
    1.8640    1.5921    1.0054 O   0  0  0  0  0  0  0  0  0  0  0  0
    0.5690    1.6066    0.5797 C   0  0  0  0  0  0  0  0  0  0  0  0
    0.1567    0.7689   -0.4107 C   0  0  0  0  0  0  0  0  0  0  0  0
   -1.2618    0.7811   -0.8632 C   0  0  0  0  0  0  0  0  0  0  0  0
   -1.6236    0.0195   -1.7488 O   0  0  0  0  0  0  0  0  0  0  0  0
   -2.2249    1.7394   -0.2643 C   0  0  0  0  0  0  0  0  0  0  0  0
   -1.7899    2.6161    0.7492 C   0  0  0  0  0  0  0  0  0  0  0  0
   -2.6952    3.5351    1.3100 C   0  0  0  0  0  0  0  0  0  0  0  0
   -4.0182    3.5809    0.8636 C   0  0  0  0  0  0  0  0  0  0  0  0
   -4.4498    2.7118   -0.1400 C   0  0  0  0  0  0  0  0  0  0  0  0
   -3.5604    1.7931   -0.7031 C   0  0  0  0  0  0  0  0  0  0  0  0
   -0.3790    2.5604    1.2046 C   0  0  0  0  0  0  0  0  0  0  0  0
    0.0138    3.3063    2.0897 O   0  0  0  0  0  0  0  0  0  0  0  0
    1.1612   -0.1294   -1.1155 C   0  0  2  0  0  0  0  0  0  0  0  0
    1.1297    0.1167   -2.2013 H   0  0  0  0  0  0  0  0  0  0  0  0
    0.9086   -1.4917   -1.0328 O   0  0  0  0  0  0  0  0  0  0  0  0
    2.0610   -2.1649   -0.9439 C   0  0  0  0  0  0  0  0  0  0  0  0
    2.2196   -3.5474   -1.0325 C   0  0  0  0  0  0  0  0  0  0  0  0
    3.5173   -4.0790   -0.9231 C   0  0  0  0  0  0  0  0  0  0  0  0
    4.6185   -3.2211   -0.7176 C   0  0  0  0  0  0  0  0  0  0  0  0
    4.4214   -1.8330   -0.6216 C   0  0  0  0  0  0  0  0  0  0  0  0
    3.1241   -1.3364   -0.7542 C   0  0  0  0  0  0  0  0  0  0  0  0
    2.2522   -0.3319    1.4674 H   0  0  0  0  0  0  0  0  0  0  0  0
    3.7035    0.6922    1.1706 H   0  0  0  0  0  0  0  0  0  0  0  0
   -2.3771    4.2181    2.0878 H   0  0  0  0  0  0  0  0  0  0  0  0
   -4.7097    4.2929    1.2956 H   0  0  0  0  0  0  0  0  0  0  0  0
   -5.4753    2.7518   -0.4842 H   0  0  0  0  0  0  0  0  0  0  0  0
   -3.9118    1.1291   -1.4829 H   0  0  0  0  0  0  0  0  0  0  0  0
    1.3668   -4.1954   -1.1865 H   0  0  0  0  0  0  0  0  0  0  0  0
    3.6717   -5.1478   -0.9929 H   0  0  0  0  0  0  0  0  0  0  0  0
    5.6156   -3.6322   -0.6273 H   0  0  0  0  0  0  0  0  0  0  0  0
    5.2556   -1.1651   -0.4505 H   0  0  0  0  0  0  0  0  0  0  0  0
  2  1  1  6  0  0  0
  3  2  1  0  0  0  0
  3 26  1  0  0  0  0
  3 27  1  0  0  0  0
  4  3  1  0  0  0  0
  5  4  1  0  0  0  0
  6  5  2  0  0  0  0
  7  6  1  0  0  0  0
  8  7  2  0  0  0  0
  9  7  1  0  0  0  0
 10  9  2  0  0  0  0
 11 10  1  0  0  0  0
 11 28  1  0  0  0  0
 12 11  2  0  0  0  0
 12 29  1  0  0  0  0
 13 12  1  0  0  0  0
 13 30  1  0  0  0  0
 14 13  2  0  0  0  0
 14  9  1  0  0  0  0
 14 31  1  0  0  0  0
 15 10  1  0  0  0  0
 15  5  1  0  0  0  0
 16 15  2  0  0  0  0
 17  6  1  0  0  0  0
 17  2  1  0  0  0  0
 17 18  1  6  0  0  0
 19 17  1  0  0  0  0
 20 19  1  0  0  0  0
 21 20  2  0  0  0  0
 21 32  1  0  0  0  0
 22 21  1  0  0  0  0
 22 33  1  0  0  0  0
 23 22  2  0  0  0  0
 23 34  1  0  0  0  0
 24 23  1  0  0  0  0
 24 35  1  0  0  0  0
 25 24  2  0  0  0  0
 25  2  1  0  0  0  0
 25 20  1  0  0  0  0
M  END
>  <MOL Chiral Flag>
0

>  <energy>
71.857418166989603

$$$$
