>411.sdf
 OpenBabel10062213273D

 68 71  0  0  0  0  0  0  0  0999 V2000
   11.2412   -3.6184    0.6979 C   0  0  0  0  0  0  0  0  0  0  0  0
   10.0075   -4.2376    0.6983 O   0  0  0  0  0  0  0  0  0  0  0  0
    8.8776   -3.7593    1.2868 C   0  0  0  0  0  0  0  0  0  0  0  0
    7.6519   -4.4687    1.1584 C   0  0  0  0  0  0  0  0  0  0  0  0
    7.5290   -5.6464    0.4811 O   0  0  0  0  0  0  0  0  0  0  0  0
    8.5277   -6.3634   -0.1445 C   0  0  0  0  0  0  0  0  0  0  0  0
    6.4914   -3.9507    1.7527 C   0  0  0  0  0  0  0  0  0  0  0  0
    6.5199   -2.7488    2.4878 C   0  0  0  0  0  0  0  0  0  0  0  0
    5.3095   -2.1561    3.1308 C   0  0  0  0  0  0  0  0  0  0  0  0
    4.0466   -2.5857    2.9236 C   0  0  0  0  0  0  0  0  0  0  0  0
    2.8831   -1.9083    3.5720 C   0  0  0  0  0  0  0  0  0  0  0  0
    3.0999   -1.0516    4.4188 O   0  0  0  0  0  0  0  0  0  0  0  0
    1.4621   -2.1879    3.1800 C   0  0  0  0  0  0  0  0  0  0  0  0
    1.1244   -3.1213    2.1746 C   0  0  0  0  0  0  0  0  0  0  0  0
   -0.2092   -3.3118    1.8019 C   0  0  0  0  0  0  0  0  0  0  0  0
   -1.2258   -2.5699    2.4056 C   0  0  0  0  0  0  0  0  0  0  0  0
   -2.5030   -2.7288    1.9879 O   0  0  0  0  0  0  0  0  0  0  0  0
   -3.2175   -1.6942    1.4104 C   0  0  0  0  0  0  0  0  0  0  0  0
   -4.4608   -1.3372    2.2261 C   0  0  0  0  0  0  0  0  0  0  0  0
   -5.2401   -0.2312    1.5084 C   0  0  0  0  0  0  0  0  0  0  0  0
   -6.3884    0.0968    2.2090 O   0  0  0  0  0  0  0  0  0  0  0  0
   -6.6785    1.3006    2.7765 C   0  0  0  0  0  0  0  0  0  0  0  0
   -8.0270    1.6145    3.0209 C   0  0  0  0  0  0  0  0  0  0  0  0
   -8.9815    0.7131    2.6581 O   0  0  0  0  0  0  0  0  0  0  0  0
  -10.2849    0.7055    3.0409 C   0  0  0  0  0  0  0  0  0  0  0  0
  -10.6788    0.7771    4.4001 C   0  0  0  0  0  0  0  0  0  0  0  0
   -9.5044    0.8394    5.7112 Cl  0  0  0  0  0  0  0  0  0  0  0  0
  -12.0401    0.7601    4.7292 C   0  0  0  0  0  0  0  0  0  0  0  0
  -13.0092    0.6661    3.7261 C   0  0  0  0  0  0  0  0  0  0  0  0
  -14.7114    0.6447    4.1492 Cl  0  0  0  0  0  0  0  0  0  0  0  0
  -12.6215    0.5778    2.3872 C   0  0  0  0  0  0  0  0  0  0  0  0
  -11.2669    0.5920    2.0481 C   0  0  0  0  0  0  0  0  0  0  0  0
   -8.3609    2.8633    3.5859 C   0  0  0  0  0  0  0  0  0  0  0  0
   -7.3607    3.7750    3.9245 C   0  0  0  0  0  0  0  0  0  0  0  0
   -6.0206    3.4588    3.7019 C   0  0  0  0  0  0  0  0  0  0  0  0
   -4.7672    4.6075    4.1354 Cl  0  0  0  0  0  0  0  0  0  0  0  0
   -5.6752    2.2312    3.1303 C   0  0  0  0  0  0  0  0  0  0  0  0
   -0.9087   -1.6533    3.4154 C   0  0  0  0  0  0  0  0  0  0  0  0
    0.4208   -1.4680    3.8040 C   0  0  0  0  0  0  0  0  0  0  0  0
    7.7365   -2.0694    2.6217 C   0  0  0  0  0  0  0  0  0  0  0  0
    8.8972   -2.5590    2.0265 C   0  0  0  0  0  0  0  0  0  0  0  0
   11.6176   -3.5031    1.7363 H   0  0  0  0  0  0  0  0  0  0  0  0
   11.9593   -4.2458    0.1313 H   0  0  0  0  0  0  0  0  0  0  0  0
   11.1725   -2.6274    0.1999 H   0  0  0  0  0  0  0  0  0  0  0  0
    9.3026   -6.6689    0.5909 H   0  0  0  0  0  0  0  0  0  0  0  0
    8.0881   -7.2835   -0.5808 H   0  0  0  0  0  0  0  0  0  0  0  0
    8.9732   -5.7709   -0.9710 H   0  0  0  0  0  0  0  0  0  0  0  0
    5.5763   -4.5107    1.6376 H   0  0  0  0  0  0  0  0  0  0  0  0
    5.4648   -1.2962    3.7773 H   0  0  0  0  0  0  0  0  0  0  0  0
    3.8701   -3.4051    2.2513 H   0  0  0  0  0  0  0  0  0  0  0  0
    1.8728   -3.6953    1.6554 H   0  0  0  0  0  0  0  0  0  0  0  0
   -0.4504   -4.0169    1.0162 H   0  0  0  0  0  0  0  0  0  0  0  0
   -2.5837   -0.7841    1.2937 H   0  0  0  0  0  0  0  0  0  0  0  0
   -3.5252   -2.0218    0.3942 H   0  0  0  0  0  0  0  0  0  0  0  0
   -4.1556   -0.9835    3.2346 H   0  0  0  0  0  0  0  0  0  0  0  0
   -5.1075   -2.2343    2.3385 H   0  0  0  0  0  0  0  0  0  0  0  0
   -4.5839    0.6453    1.3350 H   0  0  0  0  0  0  0  0  0  0  0  0
   -5.5476   -0.5923    0.5036 H   0  0  0  0  0  0  0  0  0  0  0  0
  -12.3448    0.8126    5.7669 H   0  0  0  0  0  0  0  0  0  0  0  0
  -13.3694    0.4974    1.6086 H   0  0  0  0  0  0  0  0  0  0  0  0
  -10.9763    0.5237    1.0071 H   0  0  0  0  0  0  0  0  0  0  0  0
   -9.3936    3.1350    3.7584 H   0  0  0  0  0  0  0  0  0  0  0  0
   -7.6289    4.7293    4.3597 H   0  0  0  0  0  0  0  0  0  0  0  0
   -4.6286    2.0133    2.9773 H   0  0  0  0  0  0  0  0  0  0  0  0
   -1.6913   -1.0797    3.8953 H   0  0  0  0  0  0  0  0  0  0  0  0
    0.6377   -0.7458    4.5811 H   0  0  0  0  0  0  0  0  0  0  0  0
    7.7852   -1.1425    3.1807 H   0  0  0  0  0  0  0  0  0  0  0  0
    9.8109   -1.9934    2.1466 H   0  0  0  0  0  0  0  0  0  0  0  0
  1 42  1  0  0  0  0
  1 43  1  0  0  0  0
  1 44  1  0  0  0  0
  2  1  1  0  0  0  0
  3  2  1  0  0  0  0
  4  3  2  0  0  0  0
  5  4  1  0  0  0  0
  6  5  1  0  0  0  0
  6 45  1  0  0  0  0
  6 46  1  0  0  0  0
  6 47  1  0  0  0  0
  7  4  1  0  0  0  0
  7 48  1  0  0  0  0
  8  7  2  0  0  0  0
  9  8  1  0  0  0  0
  9 49  1  0  0  0  0
 10  9  2  0  0  0  0
 10 50  1  0  0  0  0
 11 10  1  0  0  0  0
 12 11  2  0  0  0  0
 13 11  1  0  0  0  0
 14 13  2  0  0  0  0
 14 51  1  0  0  0  0
 15 14  1  0  0  0  0
 15 52  1  0  0  0  0
 16 15  2  0  0  0  0
 17 16  1  0  0  0  0
 18 17  1  0  0  0  0
 18 53  1  0  0  0  0
 18 54  1  0  0  0  0
 19 18  1  0  0  0  0
 19 55  1  0  0  0  0
 19 56  1  0  0  0  0
 20 19  1  0  0  0  0
 20 57  1  0  0  0  0
 20 58  1  0  0  0  0
 21 20  1  0  0  0  0
 22 21  1  0  0  0  0
 23 22  2  0  0  0  0
 24 23  1  0  0  0  0
 25 24  1  0  0  0  0
 26 25  2  0  0  0  0
 27 26  1  0  0  0  0
 28 26  1  0  0  0  0
 28 59  1  0  0  0  0
 29 28  2  0  0  0  0
 30 29  1  0  0  0  0
 31 29  1  0  0  0  0
 31 60  1  0  0  0  0
 32 31  2  0  0  0  0
 32 25  1  0  0  0  0
 32 61  1  0  0  0  0
 33 23  1  0  0  0  0
 33 62  1  0  0  0  0
 34 33  2  0  0  0  0
 34 63  1  0  0  0  0
 35 34  1  0  0  0  0
 36 35  1  0  0  0  0
 37 35  2  0  0  0  0
 37 22  1  0  0  0  0
 37 64  1  0  0  0  0
 38 16  1  0  0  0  0
 38 65  1  0  0  0  0
 39 38  2  0  0  0  0
 39 13  1  0  0  0  0
 39 66  1  0  0  0  0
 40  8  1  0  0  0  0
 40 67  1  0  0  0  0
 41 40  2  0  0  0  0
 41  3  1  0  0  0  0
 41 68  1  0  0  0  0
M  END
>  <MOL Chiral Flag>
0

>  <energy>
163.84203448004058

$$$$
