>413.sdf
 OpenBabel10062213283D

 45 49  0  0  0  0  0  0  0  0999 V2000
    1.6059   -1.2743   -0.8504 C   0  0  0  0  0  0  0  0  0  0  0  0
    0.4931   -0.3313   -0.5554 N   0  3  1  0  0  0  0  0  0  0  0  0
   -0.1606    0.1135   -1.8520 C   0  0  0  0  0  0  0  0  0  0  0  0
   -1.6192   -0.3956   -2.0383 C   0  0  0  0  0  0  0  0  0  0  0  0
   -2.3378    0.0360   -0.8082 C   0  0  0  0  0  0  0  0  0  0  0  0
   -1.7560   -0.1791    0.4029 C   0  0  0  0  0  0  0  0  0  0  0  0
   -0.4528   -0.8908    0.4653 C   0  0  0  0  0  0  0  0  0  0  0  0
   -2.4881    0.3614    1.4013 N   0  0  0  0  0  0  0  0  0  0  0  0
   -3.5631    0.9108    0.7992 C   0  0  0  0  0  0  0  0  0  0  0  0
   -4.6197    1.5902    1.3998 C   0  0  0  0  0  0  0  0  0  0  0  0
   -5.6403    2.0879    0.5671 C   0  0  0  0  0  0  0  0  0  0  0  0
   -5.5764    1.9009   -0.8349 C   0  0  0  0  0  0  0  0  0  0  0  0
   -4.4896    1.2173   -1.4145 C   0  0  0  0  0  0  0  0  0  0  0  0
   -3.5008    0.7304   -0.5650 C   0  0  0  0  0  0  0  0  0  0  0  0
    2.1819   -1.9525    0.3798 C   0  0  0  0  0  0  0  0  0  0  0  0
    2.7141   -1.1998    1.4413 C   0  0  0  0  0  0  0  0  0  0  0  0
    3.2020   -1.8465    2.5900 C   0  0  0  0  0  0  0  0  0  0  0  0
    3.7091   -1.1054    3.6693 C   0  0  0  0  0  0  0  0  0  0  0  0
    4.1813   -1.7618    4.8109 C   0  0  0  0  0  0  0  0  0  0  0  0
    4.1553   -3.1575    4.8826 C   0  0  0  0  0  0  0  0  0  0  0  0
    3.6551   -3.9068    3.8150 C   0  0  0  0  0  0  0  0  0  0  0  0
    3.1737   -3.2602    2.6667 C   0  0  0  0  0  0  0  0  0  0  0  0
    2.6592   -4.0037    1.5982 C   0  0  0  0  0  0  0  0  0  0  0  0
    2.1636   -3.3552    0.4674 C   0  0  0  0  0  0  0  0  0  0  0  0
    2.4242   -0.7265   -1.3700 H   0  0  0  0  0  0  0  0  0  0  0  0
    1.2419   -2.0592   -1.5522 H   0  0  0  0  0  0  0  0  0  0  0  0
    0.9231    0.5230   -0.1261 H   0  0  0  0  0  0  0  0  0  0  0  0
    0.4439   -0.1610   -2.7461 H   0  0  0  0  0  0  0  0  0  0  0  0
   -0.2113    1.2271   -1.8622 H   0  0  0  0  0  0  0  0  0  0  0  0
   -1.6005   -1.5061   -2.0856 H   0  0  0  0  0  0  0  0  0  0  0  0
   -2.1002   -0.0017   -2.9581 H   0  0  0  0  0  0  0  0  0  0  0  0
   -0.6734   -1.9502    0.2044 H   0  0  0  0  0  0  0  0  0  0  0  0
   -0.0350   -0.8659    1.4951 H   0  0  0  0  0  0  0  0  0  0  0  0
   -2.2652    0.3560    2.4216 H   0  0  0  0  0  0  0  0  0  0  0  0
   -4.6561    1.7313    2.4723 H   0  0  0  0  0  0  0  0  0  0  0  0
   -6.4781    2.6174    1.0019 H   0  0  0  0  0  0  0  0  0  0  0  0
   -6.3671    2.2861   -1.4653 H   0  0  0  0  0  0  0  0  0  0  0  0
   -4.4319    1.0693   -2.4849 H   0  0  0  0  0  0  0  0  0  0  0  0
    2.7285   -0.1180    1.3806 H   0  0  0  0  0  0  0  0  0  0  0  0
    3.7339   -0.0231    3.6307 H   0  0  0  0  0  0  0  0  0  0  0  0
    4.5673   -1.1877    5.6432 H   0  0  0  0  0  0  0  0  0  0  0  0
    4.5213   -3.6603    5.7685 H   0  0  0  0  0  0  0  0  0  0  0  0
    3.6383   -4.9881    3.8857 H   0  0  0  0  0  0  0  0  0  0  0  0
    2.6314   -5.0860    1.6431 H   0  0  0  0  0  0  0  0  0  0  0  0
    1.7587   -3.9494   -0.3423 H   0  0  0  0  0  0  0  0  0  0  0  0
  1 25  1  0  0  0  0
  1 26  1  0  0  0  0
  2  1  1  0  0  0  0
  2 27  1  1  0  0  0
  3  2  1  0  0  0  0
  3 28  1  0  0  0  0
  3 29  1  0  0  0  0
  4  3  1  0  0  0  0
  4 30  1  0  0  0  0
  4 31  1  0  0  0  0
  5  4  1  0  0  0  0
  6  5  2  0  0  0  0
  7  6  1  0  0  0  0
  7  2  1  0  0  0  0
  7 32  1  0  0  0  0
  7 33  1  0  0  0  0
  8  6  1  0  0  0  0
  8 34  1  0  0  0  0
  9  8  1  0  0  0  0
 10  9  2  0  0  0  0
 10 35  1  0  0  0  0
 11 10  1  0  0  0  0
 11 36  1  0  0  0  0
 12 11  2  0  0  0  0
 12 37  1  0  0  0  0
 13 12  1  0  0  0  0
 13 38  1  0  0  0  0
 14 13  2  0  0  0  0
 14  5  1  0  0  0  0
 14  9  1  0  0  0  0
 15  1  1  0  0  0  0
 16 15  2  0  0  0  0
 16 39  1  0  0  0  0
 17 16  1  0  0  0  0
 18 17  2  0  0  0  0
 18 40  1  0  0  0  0
 19 18  1  0  0  0  0
 19 41  1  0  0  0  0
 20 19  2  0  0  0  0
 20 42  1  0  0  0  0
 21 20  1  0  0  0  0
 21 43  1  0  0  0  0
 22 21  2  0  0  0  0
 22 17  1  0  0  0  0
 23 22  1  0  0  0  0
 23 44  1  0  0  0  0
 24 23  2  0  0  0  0
 24 15  1  0  0  0  0
 24 45  1  0  0  0  0
M  CHG  1   2   1
M  END
>  <MOL Chiral Flag>
0

>  <energy>
62.860825008770988

$$$$
