>414.sdf
 OpenBabel10062213293D

 40 41  0  0  0  0  0  0  0  0999 V2000
    5.1759   -2.7201   -0.6796 C   0  0  0  0  0  0  0  0  0  0  0  0
    5.6303   -1.4207   -0.7894 O   0  0  0  0  0  0  0  0  0  0  0  0
    4.9349   -0.3037   -0.4357 C   0  0  0  0  0  0  0  0  0  0  0  0
    3.6078   -0.3761    0.0215 C   0  0  0  0  0  0  0  0  0  0  0  0
    2.9180    0.7840    0.3869 C   0  0  0  0  0  0  0  0  0  0  0  0
    1.5086    0.7293    0.8293 C   0  0  0  0  0  0  0  0  0  0  0  0
    0.8296   -0.3550    0.7044 N   0  0  0  0  0  0  0  0  0  0  0  0
   -0.5055   -0.4084    1.0313 N   0  0  0  0  0  0  0  0  0  0  0  0
   -1.2480   -1.4803    0.6638 C   0  0  0  0  0  0  0  0  0  0  0  0
   -0.7234   -2.4063    0.0590 O   0  0  0  0  0  0  0  0  0  0  0  0
   -2.6947   -1.5221    0.9824 C   0  0  0  0  0  0  0  0  0  0  0  0
   -3.4587   -2.5733    0.6283 C   0  0  0  0  0  0  0  0  0  0  0  0
   -4.9082   -2.7040    0.9431 C   0  0  0  0  0  0  0  0  0  0  0  0
   -5.6600   -1.6801    1.5616 C   0  0  0  0  0  0  0  0  0  0  0  0
   -7.0126   -1.8799    1.8548 C   0  0  0  0  0  0  0  0  0  0  0  0
   -7.6287   -3.0925    1.5403 C   0  0  0  0  0  0  0  0  0  0  0  0
   -6.8971   -4.1071    0.9221 C   0  0  0  0  0  0  0  0  0  0  0  0
   -5.5470   -3.9142    0.6214 C   0  0  0  0  0  0  0  0  0  0  0  0
    3.5550    2.0219    0.3036 C   0  0  0  0  0  0  0  0  0  0  0  0
    4.8800    2.1431   -0.1668 C   0  0  0  0  0  0  0  0  0  0  0  0
    5.5776    0.9438   -0.5438 C   0  0  0  0  0  0  0  0  0  0  0  0
    6.8497    0.9293   -1.0110 O   0  0  0  0  0  0  0  0  0  0  0  0
    5.4501    3.4648   -0.2514 N   0  0  0  0  0  0  0  0  0  0  0  0
    6.5496    3.6425   -0.6733 O   0  0  0  0  0  0  0  0  0  0  0  0
    4.8063    4.4134    0.0839 O   0  0  0  0  0  0  0  0  0  0  0  0
    4.9629   -2.9623    0.3839 H   0  0  0  0  0  0  0  0  0  0  0  0
    4.2655   -2.8689   -1.2981 H   0  0  0  0  0  0  0  0  0  0  0  0
    5.9638   -3.4102   -1.0449 H   0  0  0  0  0  0  0  0  0  0  0  0
    3.1092   -1.3334    0.0931 H   0  0  0  0  0  0  0  0  0  0  0  0
    1.0215    1.6378    1.1768 H   0  0  0  0  0  0  0  0  0  0  0  0
   -0.9527    0.3820    1.5234 H   0  0  0  0  0  0  0  0  0  0  0  0
   -3.1127   -0.6842    1.5234 H   0  0  0  0  0  0  0  0  0  0  0  0
   -2.9905   -3.3983    0.0973 H   0  0  0  0  0  0  0  0  0  0  0  0
   -5.2209   -0.7299    1.8218 H   0  0  0  0  0  0  0  0  0  0  0  0
   -7.5830   -1.0931    2.3314 H   0  0  0  0  0  0  0  0  0  0  0  0
   -8.6734   -3.2460    1.7760 H   0  0  0  0  0  0  0  0  0  0  0  0
   -7.3743   -5.0474    0.6790 H   0  0  0  0  0  0  0  0  0  0  0  0
   -4.9932   -4.7153    0.1466 H   0  0  0  0  0  0  0  0  0  0  0  0
    2.9996    2.9076    0.5880 H   0  0  0  0  0  0  0  0  0  0  0  0
    7.4259    1.6832   -1.1537 H   0  0  0  0  0  0  0  0  0  0  0  0
  1 26  1  0  0  0  0
  1 27  1  0  0  0  0
  1 28  1  0  0  0  0
  2  1  1  0  0  0  0
  3  2  1  0  0  0  0
  4  3  2  0  0  0  0
  4 29  1  0  0  0  0
  5  4  1  0  0  0  0
  6  5  1  0  0  0  0
  6 30  1  0  0  0  0
  7  6  2  0  0  0  0
  8  7  1  0  0  0  0
  8 31  1  0  0  0  0
  9  8  1  0  0  0  0
 10  9  2  0  0  0  0
 11  9  1  0  0  0  0
 11 32  1  0  0  0  0
 12 11  2  0  0  0  0
 12 33  1  0  0  0  0
 13 12  1  0  0  0  0
 14 13  2  0  0  0  0
 14 34  1  0  0  0  0
 15 14  1  0  0  0  0
 15 35  1  0  0  0  0
 16 15  2  0  0  0  0
 16 36  1  0  0  0  0
 17 16  1  0  0  0  0
 17 37  1  0  0  0  0
 18 17  2  0  0  0  0
 18 13  1  0  0  0  0
 18 38  1  0  0  0  0
 19  5  2  0  0  0  0
 19 39  1  0  0  0  0
 20 19  1  0  0  0  0
 21 20  2  0  0  0  0
 21  3  1  0  0  0  0
 22 21  1  0  0  0  0
 22 40  1  0  0  0  0
 23 20  1  0  0  0  0
 24 23  2  0  0  0  0
 25 23  2  0  0  0  0
M  END
>  <MOL Chiral Flag>
0

>  <energy>
109.10047505285168

$$$$
