>416.sdf
 OpenBabel10062213303D

 49 51  0  0  0  0  0  0  0  0999 V2000
    7.1525    5.8704   -1.0702 N   0  3  0  0  0  0  0  0  0  0  0  0
    6.2606    5.1376   -1.9684 C   0  0  0  0  0  0  0  0  0  0  0  0
    4.8264    5.1247   -1.4239 C   0  0  0  0  0  0  0  0  0  0  0  0
    3.8746    4.3977   -2.3862 C   0  0  0  0  0  0  0  0  0  0  0  0
    2.4108    4.4049   -1.9885 C   0  0  0  0  0  0  0  0  0  0  0  0
    1.6032    3.9211   -2.7697 O   0  0  0  0  0  0  0  0  0  0  0  0
    1.9762    4.9522   -0.8134 N   0  0  0  0  0  0  0  0  0  0  0  0
    0.5671    5.0569   -0.4847 C   0  0  0  0  0  0  0  0  0  0  0  0
   -0.1071    3.7127   -0.3654 C   0  0  0  0  0  0  0  0  0  0  0  0
   -1.1655    3.3862   -1.2239 C   0  0  0  0  0  0  0  0  0  0  0  0
   -1.8319    2.1696   -1.0903 C   0  0  0  0  0  0  0  0  0  0  0  0
   -1.4772    1.2651   -0.0792 C   0  0  0  0  0  0  0  0  0  0  0  0
   -2.2379    0.0599    0.0487 N   0  0  0  0  0  0  0  0  0  0  0  0
   -2.6765   -0.5401    1.2852 C   0  0  0  0  0  0  0  0  0  0  0  0
   -2.4573    0.0344    2.4954 C   0  0  0  0  0  0  0  0  0  0  0  0
   -2.9968   -0.5505    3.7424 C   0  0  0  0  0  0  0  0  0  0  0  0
   -2.7600   -0.0067    4.8107 O   0  0  0  0  0  0  0  0  0  0  0  0
   -3.8620   -1.7490    3.6866 C   0  0  0  0  0  0  0  0  0  0  0  0
   -4.1123   -2.3571    2.4436 C   0  0  0  0  0  0  0  0  0  0  0  0
   -4.9523   -3.4841    2.3790 C   0  0  0  0  0  0  0  0  0  0  0  0
   -5.5378   -3.9927    3.5415 C   0  0  0  0  0  0  0  0  0  0  0  0
   -5.2873   -3.3883    4.7748 C   0  0  0  0  0  0  0  0  0  0  0  0
   -4.4510   -2.2723    4.8514 C   0  0  0  0  0  0  0  0  0  0  0  0
   -3.5014   -1.7867    1.2151 C   0  0  0  0  0  0  0  0  0  0  0  0
   -3.7052   -2.3185    0.1332 O   0  0  0  0  0  0  0  0  0  0  0  0
   -0.3845    1.5735    0.7579 C   0  0  0  0  0  0  0  0  0  0  0  0
    0.2943    2.7912    0.6142 C   0  0  0  0  0  0  0  0  0  0  0  0
    7.1733    5.4126   -0.1302 H   0  0  0  0  0  0  0  0  0  0  0  0
    6.8296    6.8608   -0.9728 H   0  0  0  0  0  0  0  0  0  0  0  0
    8.1183    5.8698   -1.4706 H   0  0  0  0  0  0  0  0  0  0  0  0
    6.6266    4.0934   -2.0839 H   0  0  0  0  0  0  0  0  0  0  0  0
    6.2726    5.6272   -2.9682 H   0  0  0  0  0  0  0  0  0  0  0  0
    4.4883    6.1784   -1.3094 H   0  0  0  0  0  0  0  0  0  0  0  0
    4.8167    4.6221   -0.4320 H   0  0  0  0  0  0  0  0  0  0  0  0
    4.2048    3.3435   -2.5097 H   0  0  0  0  0  0  0  0  0  0  0  0
    3.9431    4.9041   -3.3739 H   0  0  0  0  0  0  0  0  0  0  0  0
    2.6470    5.3527   -0.1441 H   0  0  0  0  0  0  0  0  0  0  0  0
    0.0710    5.6798   -1.2611 H   0  0  0  0  0  0  0  0  0  0  0  0
    0.4519    5.5880    0.4854 H   0  0  0  0  0  0  0  0  0  0  0  0
   -1.4854    4.0812   -1.9900 H   0  0  0  0  0  0  0  0  0  0  0  0
   -2.6584    1.9449   -1.7530 H   0  0  0  0  0  0  0  0  0  0  0  0
   -2.6988   -0.2815   -0.8083 H   0  0  0  0  0  0  0  0  0  0  0  0
   -1.9211    0.9626    2.5969 H   0  0  0  0  0  0  0  0  0  0  0  0
   -5.1622   -3.9622    1.4305 H   0  0  0  0  0  0  0  0  0  0  0  0
   -6.1902   -4.8544    3.4855 H   0  0  0  0  0  0  0  0  0  0  0  0
   -5.7455   -3.7823    5.6727 H   0  0  0  0  0  0  0  0  0  0  0  0
   -4.2719   -1.8115    5.8148 H   0  0  0  0  0  0  0  0  0  0  0  0
   -0.0502    0.8771    1.5152 H   0  0  0  0  0  0  0  0  0  0  0  0
    1.1203    3.0237    1.2752 H   0  0  0  0  0  0  0  0  0  0  0  0
  1 28  1  0  0  0  0
  1 29  1  0  0  0  0
  1 30  1  0  0  0  0
  2  1  1  0  0  0  0
  2 31  1  0  0  0  0
  2 32  1  0  0  0  0
  3  2  1  0  0  0  0
  3 33  1  0  0  0  0
  3 34  1  0  0  0  0
  4  3  1  0  0  0  0
  4 35  1  0  0  0  0
  4 36  1  0  0  0  0
  5  4  1  0  0  0  0
  6  5  2  0  0  0  0
  7  5  1  0  0  0  0
  7 37  1  0  0  0  0
  8  7  1  0  0  0  0
  8 38  1  0  0  0  0
  8 39  1  0  0  0  0
  9  8  1  0  0  0  0
 10  9  2  0  0  0  0
 10 40  1  0  0  0  0
 11 10  1  0  0  0  0
 11 41  1  0  0  0  0
 12 11  2  0  0  0  0
 13 12  1  0  0  0  0
 13 42  1  0  0  0  0
 14 13  1  0  0  0  0
 15 14  2  0  0  0  0
 15 43  1  0  0  0  0
 16 15  1  0  0  0  0
 17 16  2  0  0  0  0
 18 16  1  0  0  0  0
 19 18  2  0  0  0  0
 20 19  1  0  0  0  0
 20 44  1  0  0  0  0
 21 20  2  0  0  0  0
 21 45  1  0  0  0  0
 22 21  1  0  0  0  0
 22 46  1  0  0  0  0
 23 22  2  0  0  0  0
 23 18  1  0  0  0  0
 23 47  1  0  0  0  0
 24 19  1  0  0  0  0
 24 14  1  0  0  0  0
 25 24  2  0  0  0  0
 26 12  1  0  0  0  0
 26 48  1  0  0  0  0
 27 26  2  0  0  0  0
 27  9  1  0  0  0  0
 27 49  1  0  0  0  0
M  CHG  1   1   1
M  END
>  <MOL Chiral Flag>
0

>  <energy>
64.109205698881055

$$$$
