>420.sdf
 OpenBabel10062213323D

 45 45  0  0  0  0  0  0  0  0999 V2000
   -9.2878   -2.1029   -3.9474 C   0  0  0  0  0  0  0  0  0  0  0  0
   -7.9637   -2.0693   -3.1932 C   0  0  0  0  0  0  0  0  0  0  0  0
   -6.9399   -1.1394   -3.8686 C   0  0  0  0  0  0  0  0  0  0  0  0
   -5.6466   -1.1187   -3.0505 C   0  0  0  0  0  0  0  0  0  0  0  0
   -4.4986   -0.3181   -3.6972 C   0  0  0  0  0  0  0  0  0  0  0  0
   -3.2959   -0.3845   -2.7471 C   0  0  0  0  0  0  0  0  0  0  0  0
   -1.9576    0.1264   -3.3040 C   0  0  0  0  0  0  0  0  0  0  0  0
   -0.9044   -0.0899   -2.2101 C   0  0  0  0  0  0  0  0  0  0  0  0
    0.3911    0.0055   -2.6615 O   0  0  0  0  0  0  0  0  0  0  0  0
    1.1339    1.1337   -2.7419 C   0  0  0  0  0  0  0  0  0  0  0  0
    0.6209    2.2225   -2.9480 O   0  0  0  0  0  0  0  0  0  0  0  0
    2.5599    0.9912   -2.4150 C   0  0  0  0  0  0  0  0  0  0  0  0
    3.4595    1.9939   -2.3690 C   0  0  0  0  0  0  0  0  0  0  0  0
    4.8649    1.7632   -1.8978 C   0  0  0  0  0  0  0  0  0  0  0  0
    5.2368    0.5744   -1.2303 C   0  0  0  0  0  0  0  0  0  0  0  0
    6.5361    0.3716   -0.7702 C   0  0  0  0  0  0  0  0  0  0  0  0
    6.8032   -0.7895   -0.1320 O   0  0  0  0  0  0  0  0  0  0  0  0
    7.5105    1.3745   -0.9777 C   0  0  0  0  0  0  0  0  0  0  0  0
    8.7886    1.2299   -0.5595 O   0  0  0  0  0  0  0  0  0  0  0  0
    7.1489    2.5597   -1.6307 C   0  0  0  0  0  0  0  0  0  0  0  0
    5.8367    2.7594   -2.0819 C   0  0  0  0  0  0  0  0  0  0  0  0
   -9.1327   -2.4564   -4.9885 H   0  0  0  0  0  0  0  0  0  0  0  0
   -9.9865   -2.7999   -3.4364 H   0  0  0  0  0  0  0  0  0  0  0  0
   -9.7448   -1.0913   -3.9636 H   0  0  0  0  0  0  0  0  0  0  0  0
   -7.5529   -3.1032   -3.1543 H   0  0  0  0  0  0  0  0  0  0  0  0
   -8.1577   -1.7300   -2.1520 H   0  0  0  0  0  0  0  0  0  0  0  0
   -7.3467   -0.1070   -3.9363 H   0  0  0  0  0  0  0  0  0  0  0  0
   -6.7311   -1.5161   -4.8934 H   0  0  0  0  0  0  0  0  0  0  0  0
   -5.2992   -2.1695   -2.9278 H   0  0  0  0  0  0  0  0  0  0  0  0
   -5.8702   -0.7022   -2.0431 H   0  0  0  0  0  0  0  0  0  0  0  0
   -4.2425   -0.7872   -4.6723 H   0  0  0  0  0  0  0  0  0  0  0  0
   -4.7877    0.7418   -3.8706 H   0  0  0  0  0  0  0  0  0  0  0  0
   -3.5489    0.1654   -1.8135 H   0  0  0  0  0  0  0  0  0  0  0  0
   -3.1366   -1.4566   -2.4939 H   0  0  0  0  0  0  0  0  0  0  0  0
   -1.9981    1.1987   -3.5939 H   0  0  0  0  0  0  0  0  0  0  0  0
   -1.6899   -0.4814   -4.1957 H   0  0  0  0  0  0  0  0  0  0  0  0
   -0.9971   -1.1343   -1.8396 H   0  0  0  0  0  0  0  0  0  0  0  0
   -1.0775    0.5693   -1.3296 H   0  0  0  0  0  0  0  0  0  0  0  0
    2.8517   -0.0142   -2.1669 H   0  0  0  0  0  0  0  0  0  0  0  0
    3.1588    2.9979   -2.6591 H   0  0  0  0  0  0  0  0  0  0  0  0
    4.5294   -0.2105   -1.0276 H   0  0  0  0  0  0  0  0  0  0  0  0
    7.6608   -1.0285    0.2368 H   0  0  0  0  0  0  0  0  0  0  0  0
    9.1214    0.4446   -0.1091 H   0  0  0  0  0  0  0  0  0  0  0  0
    7.8910    3.3327   -1.7870 H   0  0  0  0  0  0  0  0  0  0  0  0
    5.5843    3.6873   -2.5804 H   0  0  0  0  0  0  0  0  0  0  0  0
  1 22  1  0  0  0  0
  1 23  1  0  0  0  0
  1 24  1  0  0  0  0
  2  1  1  0  0  0  0
  2 25  1  0  0  0  0
  2 26  1  0  0  0  0
  3  2  1  0  0  0  0
  3 27  1  0  0  0  0
  3 28  1  0  0  0  0
  4  3  1  0  0  0  0
  4 29  1  0  0  0  0
  4 30  1  0  0  0  0
  5  4  1  0  0  0  0
  5 31  1  0  0  0  0
  5 32  1  0  0  0  0
  6  5  1  0  0  0  0
  6 33  1  0  0  0  0
  6 34  1  0  0  0  0
  7  6  1  0  0  0  0
  7 35  1  0  0  0  0
  7 36  1  0  0  0  0
  8  7  1  0  0  0  0
  8 37  1  0  0  0  0
  8 38  1  0  0  0  0
  9  8  1  0  0  0  0
 10  9  1  0  0  0  0
 11 10  2  0  0  0  0
 12 10  1  0  0  0  0
 12 39  1  0  0  0  0
 13 12  2  0  0  0  0
 13 40  1  0  0  0  0
 14 13  1  0  0  0  0
 15 14  2  0  0  0  0
 15 41  1  0  0  0  0
 16 15  1  0  0  0  0
 17 16  1  0  0  0  0
 17 42  1  0  0  0  0
 18 16  2  0  0  0  0
 19 18  1  0  0  0  0
 19 43  1  0  0  0  0
 20 18  1  0  0  0  0
 20 44  1  0  0  0  0
 21 20  2  0  0  0  0
 21 14  1  0  0  0  0
 21 45  1  0  0  0  0
M  END
>  <MOL Chiral Flag>
0

>  <energy>
9.8880346560957122

$$$$
