>423.sdf
 OpenBabel10062213343D

 46 50  0  0  0  0  0  0  0  0999 V2000
    0.7328    1.7975   -3.2632 O   0  0  0  0  0  0  0  0  0  0  0  0
    0.6097    1.6543   -2.0545 C   0  0  0  0  0  0  0  0  0  0  0  0
    1.6855    1.8084   -1.1065 C   0  0  0  0  0  0  0  0  0  0  0  0
    1.1477    1.6330    0.2857 C   0  0  0  0  0  0  0  0  0  0  0  0
   -0.2976    1.0479    0.0924 C   0  0  0  0  0  0  0  0  0  0  0  0
   -0.6152    1.2437   -1.3865 C   0  0  0  0  0  0  0  0  0  0  0  0
   -1.7165    0.9458   -2.1432 C   0  0  0  0  0  0  0  0  0  0  0  0
   -3.0670    0.3493   -1.8441 C   0  0  0  0  0  0  0  0  0  0  0  0
   -3.8871    0.5346   -0.6874 C   0  0  0  0  0  0  0  0  0  0  0  0
   -3.5747    1.4396    0.3348 C   0  0  0  0  0  0  0  0  0  0  0  0
   -4.4123    1.5636    1.4479 C   0  0  0  0  0  0  0  0  0  0  0  0
   -5.5501    0.8297    1.5381 N   0  0  0  0  0  0  0  0  0  0  0  0
   -5.9227   -0.0220    0.5508 C   0  0  0  0  0  0  0  0  0  0  0  0
   -5.1164   -0.1806   -0.5839 C   0  0  0  0  0  0  0  0  0  0  0  0
   -5.5398   -1.0211   -1.6183 C   0  0  0  0  0  0  0  0  0  0  0  0
   -4.7707   -1.1554   -2.7623 C   0  0  0  0  0  0  0  0  0  0  0  0
   -3.5595   -0.4837   -2.8742 C   0  0  0  0  0  0  0  0  0  0  0  0
    2.9564    2.0509   -1.5079 C   0  0  0  0  0  0  0  0  0  0  0  0
    4.1610    2.2869   -0.6551 C   0  0  0  0  0  0  0  0  0  0  0  0
    5.4450    1.8250   -1.0741 C   0  0  0  0  0  0  0  0  0  0  0  0
    5.6232    1.0261   -2.2240 C   0  0  0  0  0  0  0  0  0  0  0  0
    6.8989    0.5847   -2.5772 C   0  0  0  0  0  0  0  0  0  0  0  0
    7.9762    0.9276   -1.8236 N   0  0  0  0  0  0  0  0  0  0  0  0
    7.8515    1.6916   -0.7101 C   0  0  0  0  0  0  0  0  0  0  0  0
    6.5895    2.1499   -0.3007 C   0  0  0  0  0  0  0  0  0  0  0  0
    6.4596    2.9205    0.8576 C   0  0  0  0  0  0  0  0  0  0  0  0
    5.2037    3.3596    1.2700 C   0  0  0  0  0  0  0  0  0  0  0  0
    4.0632    3.0432    0.5275 C   0  0  0  0  0  0  0  0  0  0  0  0
    1.7478    0.9510    0.9261 H   0  0  0  0  0  0  0  0  0  0  0  0
    1.0876    2.6434    0.7400 H   0  0  0  0  0  0  0  0  0  0  0  0
   -0.2866   -0.0528    0.2438 H   0  0  0  0  0  0  0  0  0  0  0  0
   -0.9136    1.4870    0.8897 H   0  0  0  0  0  0  0  0  0  0  0  0
   -1.5618    1.0713   -3.2122 H   0  0  0  0  0  0  0  0  0  0  0  0
   -2.7257    2.0791    0.2629 H   0  0  0  0  0  0  0  0  0  0  0  0
   -4.1647    2.2611    2.2363 H   0  0  0  0  0  0  0  0  0  0  0  0
   -6.8565   -0.5646    0.6426 H   0  0  0  0  0  0  0  0  0  0  0  0
   -6.4805   -1.5551   -1.5495 H   0  0  0  0  0  0  0  0  0  0  0  0
   -5.1095   -1.7916   -3.5704 H   0  0  0  0  0  0  0  0  0  0  0  0
   -2.9800   -0.6329   -3.7784 H   0  0  0  0  0  0  0  0  0  0  0  0
    3.1284    2.0559   -2.5781 H   0  0  0  0  0  0  0  0  0  0  0  0
    4.7941    0.7177   -2.8437 H   0  0  0  0  0  0  0  0  0  0  0  0
    7.0319   -0.0382   -3.4512 H   0  0  0  0  0  0  0  0  0  0  0  0
    8.7374    1.9369   -0.1360 H   0  0  0  0  0  0  0  0  0  0  0  0
    7.3329    3.1823    1.4447 H   0  0  0  0  0  0  0  0  0  0  0  0
    5.1144    3.9643    2.1630 H   0  0  0  0  0  0  0  0  0  0  0  0
    3.1177    3.4376    0.8586 H   0  0  0  0  0  0  0  0  0  0  0  0
  2  1  2  0  0  0  0
  3  2  1  0  0  0  0
  4  3  1  0  0  0  0
  4 29  1  0  0  0  0
  4 30  1  0  0  0  0
  5  4  1  0  0  0  0
  5 31  1  0  0  0  0
  5 32  1  0  0  0  0
  6  5  1  0  0  0  0
  6  2  1  0  0  0  0
  7  6  2  0  0  0  0
  7 33  1  0  0  0  0
  8  7  1  0  0  0  0
  9  8  2  0  0  0  0
 10  9  1  0  0  0  0
 10 34  1  0  0  0  0
 11 10  2  0  0  0  0
 11 35  1  0  0  0  0
 12 11  1  0  0  0  0
 13 12  2  0  0  0  0
 13 36  1  0  0  0  0
 14 13  1  0  0  0  0
 14  9  1  0  0  0  0
 15 14  2  0  0  0  0
 15 37  1  0  0  0  0
 16 15  1  0  0  0  0
 16 38  1  0  0  0  0
 17 16  2  0  0  0  0
 17  8  1  0  0  0  0
 17 39  1  0  0  0  0
 18  3  2  0  0  0  0
 18 40  1  0  0  0  0
 19 18  1  0  0  0  0
 20 19  2  0  0  0  0
 21 20  1  0  0  0  0
 21 41  1  0  0  0  0
 22 21  2  0  0  0  0
 22 42  1  0  0  0  0
 23 22  1  0  0  0  0
 24 23  2  0  0  0  0
 24 43  1  0  0  0  0
 25 24  1  0  0  0  0
 25 20  1  0  0  0  0
 26 25  2  0  0  0  0
 26 44  1  0  0  0  0
 27 26  1  0  0  0  0
 27 45  1  0  0  0  0
 28 27  2  0  0  0  0
 28 19  1  0  0  0  0
 28 46  1  0  0  0  0
M  END
>  <MOL Chiral Flag>
0

>  <energy>
110.15891103079156

$$$$
