>424.sdf
 OpenBabel10062213343D

 38 40  0  0  0  0  0  0  0  0999 V2000
   -4.4207    0.1961    0.0525 C   0  0  0  0  0  0  0  0  0  0  0  0
   -3.2109   -0.6521    0.0398 N   0  3  1  0  0  0  0  0  0  0  0  0
   -2.3006   -0.3408   -1.0791 C   0  0  1  0  0  0  0  0  0  0  0  0
   -1.5809    0.9548   -0.6563 C   0  0  0  0  0  0  0  0  0  0  0  0
   -1.6035    0.8988    0.8875 C   0  0  0  0  0  0  0  0  0  0  0  0
   -2.3211   -0.4298    1.1973 C   0  0  2  0  0  0  0  0  0  0  0  0
   -1.3202   -1.6283    1.2817 C   0  0  0  0  0  0  0  0  0  0  0  0
   -0.4251   -1.7390    0.0281 C   0  0  1  0  0  0  0  0  0  0  0  0
   -1.3022   -1.5258   -1.2362 C   0  0  0  0  0  0  0  0  0  0  0  0
    0.6114   -0.8182    0.1370 O   0  0  0  0  0  0  0  0  0  0  0  0
    1.6498   -0.6888   -0.7390 C   0  0  0  0  0  0  0  0  0  0  0  0
    1.6421   -1.2885   -1.8041 O   0  0  0  0  0  0  0  0  0  0  0  0
    2.8169    0.1576   -0.3868 C   0  0  0  0  0  0  0  0  0  0  0  0
    2.9593    0.6750    0.9134 C   0  0  0  0  0  0  0  0  0  0  0  0
    4.0771    1.4494    1.2452 C   0  0  0  0  0  0  0  0  0  0  0  0
    5.0523    1.7238    0.2827 C   0  0  0  0  0  0  0  0  0  0  0  0
    4.9159    1.2212   -1.0127 C   0  0  0  0  0  0  0  0  0  0  0  0
    3.8086    0.4367   -1.3476 C   0  0  0  0  0  0  0  0  0  0  0  0
   -5.0273   -0.0004   -0.8590 H   0  0  0  0  0  0  0  0  0  0  0  0
   -4.1963    1.2807    0.0847 H   0  0  0  0  0  0  0  0  0  0  0  0
   -5.0498   -0.0547    0.9340 H   0  0  0  0  0  0  0  0  0  0  0  0
   -3.5579   -1.6412   -0.0004 H   0  0  0  0  0  0  0  0  0  0  0  0
   -2.8316   -0.2389   -2.0525 H   0  0  0  0  0  0  0  0  0  0  0  0
   -2.2119    1.8189   -0.9609 H   0  0  0  0  0  0  0  0  0  0  0  0
   -0.5887    1.1012   -1.1317 H   0  0  0  0  0  0  0  0  0  0  0  0
   -2.2617    1.7279    1.2301 H   0  0  0  0  0  0  0  0  0  0  0  0
   -0.6299    1.0334    1.4037 H   0  0  0  0  0  0  0  0  0  0  0  0
   -2.8719   -0.4002    2.1643 H   0  0  0  0  0  0  0  0  0  0  0  0
   -1.9275   -2.5547    1.3787 H   0  0  0  0  0  0  0  0  0  0  0  0
   -0.6805   -1.5594    2.1887 H   0  0  0  0  0  0  0  0  0  0  0  0
    0.0533   -2.7431    0.0029 H   0  0  0  0  0  0  0  0  0  0  0  0
   -1.9089   -2.4425   -1.4042 H   0  0  0  0  0  0  0  0  0  0  0  0
   -0.6865   -1.3964   -2.1455 H   0  0  0  0  0  0  0  0  0  0  0  0
    2.2176    0.4667    1.6743 H   0  0  0  0  0  0  0  0  0  0  0  0
    4.1893    1.8348    2.2504 H   0  0  0  0  0  0  0  0  0  0  0  0
    5.9150    2.3246    0.5410 H   0  0  0  0  0  0  0  0  0  0  0  0
    5.6706    1.4364   -1.7585 H   0  0  0  0  0  0  0  0  0  0  0  0
    3.7223    0.0533   -2.3566 H   0  0  0  0  0  0  0  0  0  0  0  0
  1 19  1  0  0  0  0
  1 20  1  0  0  0  0
  1 21  1  0  0  0  0
  2  1  1  0  0  0  0
  2 22  1  6  0  0  0
  3  2  1  0  0  0  0
  3 23  1  6  0  0  0
  4  3  1  0  0  0  0
  4 24  1  0  0  0  0
  4 25  1  0  0  0  0
  5  4  1  0  0  0  0
  5 26  1  0  0  0  0
  5 27  1  0  0  0  0
  6  5  1  0  0  0  0
  6  2  1  0  0  0  0
  6 28  1  1  0  0  0
  7  6  1  0  0  0  0
  7 29  1  0  0  0  0
  7 30  1  0  0  0  0
  8  7  1  0  0  0  0
  8 31  1  6  0  0  0
  9  8  1  0  0  0  0
  9  3  1  0  0  0  0
  9 32  1  0  0  0  0
  9 33  1  0  0  0  0
 10  8  1  0  0  0  0
 11 10  1  0  0  0  0
 12 11  2  0  0  0  0
 13 11  1  0  0  0  0
 14 13  2  0  0  0  0
 14 34  1  0  0  0  0
 15 14  1  0  0  0  0
 15 35  1  0  0  0  0
 16 15  2  0  0  0  0
 16 36  1  0  0  0  0
 17 16  1  0  0  0  0
 17 37  1  0  0  0  0
 18 17  2  0  0  0  0
 18 13  1  0  0  0  0
 18 38  1  0  0  0  0
M  CHG  1   2   1
M  END
>  <MOL Chiral Flag>
0

>  <energy>
149.26700855534978

$$$$
