>427.sdf
 OpenBabel10062213363D

 41 44  0  0  0  0  0  0  0  0999 V2000
   -3.0399   -1.1093    0.7620 C   0  0  0  0  0  0  0  0  0  0  0  0
   -2.9989    0.0899   -0.0926 N   0  3  1  0  0  0  0  0  0  0  0  0
   -2.5807    1.2948    0.6872 C   0  0  0  0  0  0  0  0  0  0  0  0
   -1.6273    2.1971   -0.1058 C   0  0  0  0  0  0  0  0  0  0  0  0
   -0.4733    1.3903   -0.4744 N   0  0  0  0  0  0  0  0  0  0  0  0
   -0.6746    0.1021   -1.1434 C   0  0  2  0  0  0  0  0  0  0  0  0
   -2.2036   -0.1350   -1.3305 C   0  0  0  0  0  0  0  0  0  0  0  0
    0.0378   -1.1191   -0.5299 C   0  0  0  0  0  0  0  0  0  0  0  0
   -0.0740   -2.3304   -1.2528 C   0  0  0  0  0  0  0  0  0  0  0  0
    0.5535   -3.4968   -0.8234 C   0  0  0  0  0  0  0  0  0  0  0  0
    1.3201   -3.4905    0.3320 C   0  0  0  0  0  0  0  0  0  0  0  0
    1.4661   -2.3170    1.0637 C   0  0  0  0  0  0  0  0  0  0  0  0
    0.8385   -1.1197    0.6575 C   0  0  0  0  0  0  0  0  0  0  0  0
    1.0624    0.0956    1.5197 C   0  0  0  0  0  0  0  0  0  0  0  0
    1.6285    1.2495    0.7483 C   0  0  0  0  0  0  0  0  0  0  0  0
    2.9088    1.7541    1.0319 C   0  0  0  0  0  0  0  0  0  0  0  0
    3.3850    2.8796    0.3524 C   0  0  0  0  0  0  0  0  0  0  0  0
    2.5801    3.5171   -0.5956 C   0  0  0  0  0  0  0  0  0  0  0  0
    1.3019    3.0250   -0.8718 C   0  0  0  0  0  0  0  0  0  0  0  0
    0.8314    1.8791   -0.2134 C   0  0  0  0  0  0  0  0  0  0  0  0
   -2.0356   -1.3564    1.1633 H   0  0  0  0  0  0  0  0  0  0  0  0
   -3.4227   -1.9839    0.1914 H   0  0  0  0  0  0  0  0  0  0  0  0
   -3.7271   -0.9443    1.6211 H   0  0  0  0  0  0  0  0  0  0  0  0
   -3.9840    0.2478   -0.4155 H   0  0  0  0  0  0  0  0  0  0  0  0
   -2.0433    1.0030    1.6154 H   0  0  0  0  0  0  0  0  0  0  0  0
   -3.4752    1.8719    1.0114 H   0  0  0  0  0  0  0  0  0  0  0  0
   -1.3279    3.0849    0.4944 H   0  0  0  0  0  0  0  0  0  0  0  0
   -2.1427    2.5672   -1.0176 H   0  0  0  0  0  0  0  0  0  0  0  0
   -0.2318    0.1882   -2.1612 H   0  0  0  0  0  0  0  0  0  0  0  0
   -2.4523   -1.1056   -1.8089 H   0  0  0  0  0  0  0  0  0  0  0  0
   -2.5376    0.6182   -2.0804 H   0  0  0  0  0  0  0  0  0  0  0  0
   -0.6468   -2.3710   -2.1696 H   0  0  0  0  0  0  0  0  0  0  0  0
    0.4490   -4.4092   -1.3964 H   0  0  0  0  0  0  0  0  0  0  0  0
    1.8097   -4.3980    0.6611 H   0  0  0  0  0  0  0  0  0  0  0  0
    2.0755   -2.3426    1.9589 H   0  0  0  0  0  0  0  0  0  0  0  0
    1.7444   -0.1545    2.3622 H   0  0  0  0  0  0  0  0  0  0  0  0
    0.1087    0.4079    1.9873 H   0  0  0  0  0  0  0  0  0  0  0  0
    3.5319    1.2833    1.7821 H   0  0  0  0  0  0  0  0  0  0  0  0
    4.3719    3.2662    0.5711 H   0  0  0  0  0  0  0  0  0  0  0  0
    2.9449    4.3955   -1.1121 H   0  0  0  0  0  0  0  0  0  0  0  0
    0.6795    3.5257   -1.6029 H   0  0  0  0  0  0  0  0  0  0  0  0
  1 21  1  0  0  0  0
  1 22  1  0  0  0  0
  1 23  1  0  0  0  0
  2  1  1  0  0  0  0
  2 24  1  6  0  0  0
  3  2  1  0  0  0  0
  3 25  1  0  0  0  0
  3 26  1  0  0  0  0
  4  3  1  0  0  0  0
  4 27  1  0  0  0  0
  4 28  1  0  0  0  0
  5  4  1  0  0  0  0
  6  5  1  0  0  0  0
  6 29  1  6  0  0  0
  7  6  1  0  0  0  0
  7  2  1  0  0  0  0
  7 30  1  0  0  0  0
  7 31  1  0  0  0  0
  8  6  1  0  0  0  0
  9  8  2  0  0  0  0
  9 32  1  0  0  0  0
 10  9  1  0  0  0  0
 10 33  1  0  0  0  0
 11 10  2  0  0  0  0
 11 34  1  0  0  0  0
 12 11  1  0  0  0  0
 12 35  1  0  0  0  0
 13 12  2  0  0  0  0
 13  8  1  0  0  0  0
 14 13  1  0  0  0  0
 14 36  1  0  0  0  0
 14 37  1  0  0  0  0
 15 14  1  0  0  0  0
 16 15  2  0  0  0  0
 16 38  1  0  0  0  0
 17 16  1  0  0  0  0
 17 39  1  0  0  0  0
 18 17  2  0  0  0  0
 18 40  1  0  0  0  0
 19 18  1  0  0  0  0
 19 41  1  0  0  0  0
 20 19  2  0  0  0  0
 20  5  1  0  0  0  0
 20 15  1  0  0  0  0
M  CHG  1   2   1
M  END
>  <MOL Chiral Flag>
0

>  <energy>
164.10150796072054

$$$$
