>43.sdf
 OpenBabel10052218073D

 45 48  0  0  0  0  0  0  0  0999 V2000
    6.2219   -4.2960    1.5232 Cl  0  0  0  0  0  0  0  0  0  0  0  0
    5.1199   -3.5808    0.3599 C   0  0  0  0  0  0  0  0  0  0  0  0
    4.6631   -4.3405   -0.7178 C   0  0  0  0  0  0  0  0  0  0  0  0
    3.7756   -3.7841   -1.6379 C   0  0  0  0  0  0  0  0  0  0  0  0
    3.3234   -2.4664   -1.4852 C   0  0  0  0  0  0  0  0  0  0  0  0
    2.1688   -1.8570   -2.6690 Cl  0  0  0  0  0  0  0  0  0  0  0  0
    3.7668   -1.6874   -0.3826 C   0  0  0  0  0  0  0  0  0  0  0  0
    3.1980   -0.2916   -0.1005 C   0  0  0  0  0  0  0  0  0  0  0  0
    2.4152   -0.3654    1.2371 C   0  0  0  0  0  0  0  0  0  0  0  0
    1.0209    0.3111    1.3847 C   0  0  1  0  0  0  0  0  0  0  0  0
    0.9410    1.7881    1.7941 C   0  0  0  0  0  0  0  0  0  0  0  0
    1.1008    2.7636    0.6381 C   0  0  0  0  0  0  0  0  0  0  0  0
    0.1900    2.4253   -0.5153 C   0  0  0  0  0  0  0  0  0  0  0  0
   -0.2620    1.0998   -0.7407 C   0  0  0  0  0  0  0  0  0  0  0  0
   -1.0807    0.8357   -1.8540 C   0  0  0  0  0  0  0  0  0  0  0  0
   -1.4715    1.8639   -2.7115 C   0  0  0  0  0  0  0  0  0  0  0  0
   -1.0524    3.1712   -2.4717 C   0  0  0  0  0  0  0  0  0  0  0  0
   -0.2181    3.4516   -1.3871 C   0  0  0  0  0  0  0  0  0  0  0  0
    0.0577   -0.0491    0.2068 C   0  0  2  0  0  0  0  0  0  0  0  0
   -1.2108   -0.5793    0.7224 N   0  0  0  0  0  0  0  0  0  0  0  0
   -2.1598    0.0744    1.4069 C   0  0  0  0  0  0  0  0  0  0  0  0
   -3.1839   -0.8104    1.6584 C   0  0  0  0  0  0  0  0  0  0  0  0
   -2.8697   -2.0104    1.1325 N   0  0  0  0  0  0  0  0  0  0  0  0
   -1.6566   -1.8400    0.5636 C   0  0  0  0  0  0  0  0  0  0  0  0
    4.6786   -2.2619    0.5276 C   0  0  0  0  0  0  0  0  0  0  0  0
    4.9890   -5.3669   -0.8393 H   0  0  0  0  0  0  0  0  0  0  0  0
    3.4214   -4.3870   -2.4654 H   0  0  0  0  0  0  0  0  0  0  0  0
    2.5155    0.0016   -0.9150 H   0  0  0  0  0  0  0  0  0  0  0  0
    3.9842    0.4929   -0.0659 H   0  0  0  0  0  0  0  0  0  0  0  0
    3.0874   -0.1662    2.1008 H   0  0  0  0  0  0  0  0  0  0  0  0
    2.1286   -1.4379    1.3519 H   0  0  0  0  0  0  0  0  0  0  0  0
    0.6524   -0.2122    2.2988 H   0  0  0  0  0  0  0  0  0  0  0  0
   -0.0782    1.9571    2.2017 H   0  0  0  0  0  0  0  0  0  0  0  0
    1.6538    2.0187    2.6153 H   0  0  0  0  0  0  0  0  0  0  0  0
    2.1455    2.8044    0.2698 H   0  0  0  0  0  0  0  0  0  0  0  0
    0.8384    3.7696    1.0407 H   0  0  0  0  0  0  0  0  0  0  0  0
   -1.4276   -0.1722   -2.0464 H   0  0  0  0  0  0  0  0  0  0  0  0
   -2.1115    1.6470   -3.5572 H   0  0  0  0  0  0  0  0  0  0  0  0
   -1.3740    3.9690   -3.1293 H   0  0  0  0  0  0  0  0  0  0  0  0
    0.0985    4.4734   -1.2159 H   0  0  0  0  0  0  0  0  0  0  0  0
    0.5250   -0.8703   -0.3783 H   0  0  0  0  0  0  0  0  0  0  0  0
   -2.1250    1.1163    1.6890 H   0  0  0  0  0  0  0  0  0  0  0  0
   -4.1033   -0.5928    2.1824 H   0  0  0  0  0  0  0  0  0  0  0  0
   -1.1177   -2.6199    0.0432 H   0  0  0  0  0  0  0  0  0  0  0  0
    5.0207   -1.6952    1.3841 H   0  0  0  0  0  0  0  0  0  0  0  0
  2  1  1  0  0  0  0
  3  2  2  0  0  0  0
  3 26  1  0  0  0  0
  4  3  1  0  0  0  0
  4 27  1  0  0  0  0
  5  4  2  0  0  0  0
  6  5  1  0  0  0  0
  7  5  1  0  0  0  0
  8  7  1  0  0  0  0
  8 28  1  0  0  0  0
  8 29  1  0  0  0  0
  9  8  1  0  0  0  0
  9 30  1  0  0  0  0
  9 31  1  0  0  0  0
 10  9  1  0  0  0  0
 10 32  1  1  0  0  0
 11 10  1  0  0  0  0
 11 33  1  0  0  0  0
 11 34  1  0  0  0  0
 12 11  1  0  0  0  0
 12 35  1  0  0  0  0
 12 36  1  0  0  0  0
 13 12  1  0  0  0  0
 14 13  2  0  0  0  0
 15 14  1  0  0  0  0
 15 37  1  0  0  0  0
 16 15  2  0  0  0  0
 16 38  1  0  0  0  0
 17 16  1  0  0  0  0
 17 39  1  0  0  0  0
 18 17  2  0  0  0  0
 18 13  1  0  0  0  0
 18 40  1  0  0  0  0
 19 14  1  0  0  0  0
 19 10  1  0  0  0  0
 19 41  1  6  0  0  0
 20 19  1  0  0  0  0
 21 20  1  0  0  0  0
 21 42  1  0  0  0  0
 22 21  2  0  0  0  0
 22 43  1  0  0  0  0
 23 22  1  0  0  0  0
 24 23  2  0  0  0  0
 24 20  1  0  0  0  0
 24 44  1  0  0  0  0
 25  7  2  0  0  0  0
 25  2  1  0  0  0  0
 25 45  1  0  0  0  0
M  END
>  <MOL Chiral Flag>
0

>  <energy>
69.283056828326224

$$$$
