>430.sdf
 OpenBabel10062213403D

 78 83  0  0  0  0  0  0  0  0999 V2000
    1.0868    8.8842    0.0975 C   0  0  0  0  0  0  0  0  0  0  0  0
   -0.3255    8.8807    0.4728 N   0  0  0  0  0  0  0  0  0  0  0  0
   -1.1419    9.9591   -0.0044 C   0  0  0  0  0  0  0  0  0  0  0  0
   -2.3803    9.7043   -0.6278 C   0  0  0  0  0  0  0  0  0  0  0  0
   -3.1051   10.7516   -1.2113 C   0  0  0  0  0  0  0  0  0  0  0  0
   -2.6162   12.0613   -1.1597 C   0  0  0  0  0  0  0  0  0  0  0  0
   -3.5855   13.4843   -1.9871 Br  0  0  0  0  0  0  0  0  0  0  0  0
   -1.4046   12.3275   -0.5194 C   0  0  0  0  0  0  0  0  0  0  0  0
   -0.6678   11.2857    0.0445 C   0  0  0  0  0  0  0  0  0  0  0  0
   -0.8539    7.7645    1.2283 C   0  0  0  0  0  0  0  0  0  0  0  0
   -2.0792    7.8550    1.9286 C   0  0  0  0  0  0  0  0  0  0  0  0
   -2.5419    6.7572    2.6764 C   0  0  0  0  0  0  0  0  0  0  0  0
   -1.8281    5.5946    2.7188 N   0  3  0  0  0  0  0  0  0  0  0  0
   -2.3319    4.4033    3.4280 C   0  0  0  0  0  0  0  0  0  0  0  0
   -2.6498    3.2903    2.4415 C   0  0  0  0  0  0  0  0  0  0  0  0
   -2.8484    3.5804    1.0833 C   0  0  0  0  0  0  0  0  0  0  0  0
   -3.1011    2.5742    0.1670 C   0  0  0  0  0  0  0  0  0  0  0  0
   -3.1681    1.2228    0.5638 C   0  0  0  0  0  0  0  0  0  0  0  0
   -2.9990    0.9309    1.9410 C   0  0  0  0  0  0  0  0  0  0  0  0
   -2.7450    1.9571    2.8671 C   0  0  0  0  0  0  0  0  0  0  0  0
   -3.4163    0.1437   -0.4650 C   0  0  0  0  0  0  0  0  0  0  0  0
   -3.2632    0.4168   -1.8460 C   0  0  0  0  0  0  0  0  0  0  0  0
   -3.5134   -0.5579   -2.8050 C   0  0  0  0  0  0  0  0  0  0  0  0
   -3.9162   -1.8396   -2.4323 C   0  0  0  0  0  0  0  0  0  0  0  0
   -4.2204   -2.8328   -3.5313 C   0  0  0  0  0  0  0  0  0  0  0  0
   -4.5238   -4.1812   -3.0363 N   0  3  0  0  0  0  0  0  0  0  0  0
   -3.5032   -4.9722   -2.5875 C   0  0  0  0  0  0  0  0  0  0  0  0
   -3.7508   -6.2760   -2.1630 C   0  0  0  0  0  0  0  0  0  0  0  0
   -5.0619   -6.7702   -2.1568 C   0  0  0  0  0  0  0  0  0  0  0  0
   -6.1014   -5.9343   -2.5924 C   0  0  0  0  0  0  0  0  0  0  0  0
   -5.8093   -4.6472   -3.0515 C   0  0  0  0  0  0  0  0  0  0  0  0
   -5.3374   -8.1163   -1.7518 N   0  0  0  0  0  0  0  0  0  0  0  0
   -4.4440   -9.1908   -2.1622 C   0  0  0  0  0  0  0  0  0  0  0  0
   -6.4105   -8.4077   -0.8458 C   0  0  0  0  0  0  0  0  0  0  0  0
   -6.7007   -7.5185    0.2081 C   0  0  0  0  0  0  0  0  0  0  0  0
   -7.6709   -7.8417    1.1610 C   0  0  0  0  0  0  0  0  0  0  0  0
   -8.3835   -9.0389    1.0590 C   0  0  0  0  0  0  0  0  0  0  0  0
   -9.6949   -9.4866    2.3733 Br  0  0  0  0  0  0  0  0  0  0  0  0
   -8.1253   -9.9161    0.0030 C   0  0  0  0  0  0  0  0  0  0  0  0
   -7.1361   -9.6131   -0.9369 C   0  0  0  0  0  0  0  0  0  0  0  0
   -4.0581   -2.1397   -1.0646 C   0  0  0  0  0  0  0  0  0  0  0  0
   -3.8103   -1.1616   -0.0926 C   0  0  0  0  0  0  0  0  0  0  0  0
   -0.6314    5.4955    2.0625 C   0  0  0  0  0  0  0  0  0  0  0  0
   -0.1319    6.5623    1.3290 C   0  0  0  0  0  0  0  0  0  0  0  0
    1.3655    9.7745   -0.5029 H   0  0  0  0  0  0  0  0  0  0  0  0
    1.3049    8.0182   -0.5610 H   0  0  0  0  0  0  0  0  0  0  0  0
    1.7235    8.8526    1.0048 H   0  0  0  0  0  0  0  0  0  0  0  0
   -2.7552    8.6922   -0.7102 H   0  0  0  0  0  0  0  0  0  0  0  0
   -4.0361   10.5436   -1.7231 H   0  0  0  0  0  0  0  0  0  0  0  0
   -1.0223   13.3395   -0.4760 H   0  0  0  0  0  0  0  0  0  0  0  0
    0.2784   11.5108    0.5206 H   0  0  0  0  0  0  0  0  0  0  0  0
   -2.6643    8.7632    1.9137 H   0  0  0  0  0  0  0  0  0  0  0  0
   -3.4864    6.8378    3.2043 H   0  0  0  0  0  0  0  0  0  0  0  0
   -1.5407    4.0689    4.1364 H   0  0  0  0  0  0  0  0  0  0  0  0
   -3.2448    4.6154    4.0264 H   0  0  0  0  0  0  0  0  0  0  0  0
   -2.8132    4.5966    0.7166 H   0  0  0  0  0  0  0  0  0  0  0  0
   -3.2533    2.8836   -0.8512 H   0  0  0  0  0  0  0  0  0  0  0  0
   -3.0348   -0.0817    2.3114 H   0  0  0  0  0  0  0  0  0  0  0  0
   -2.5986    1.7081    3.9114 H   0  0  0  0  0  0  0  0  0  0  0  0
   -2.9413    1.3763   -2.2103 H   0  0  0  0  0  0  0  0  0  0  0  0
   -3.3930   -0.3089   -3.8528 H   0  0  0  0  0  0  0  0  0  0  0  0
   -3.3680   -2.9006   -4.2443 H   0  0  0  0  0  0  0  0  0  0  0  0
   -5.0812   -2.4170   -4.1005 H   0  0  0  0  0  0  0  0  0  0  0  0
   -2.4857   -4.5991   -2.5783 H   0  0  0  0  0  0  0  0  0  0  0  0
   -2.9266   -6.8887   -1.8236 H   0  0  0  0  0  0  0  0  0  0  0  0
   -7.1236   -6.2911   -2.6174 H   0  0  0  0  0  0  0  0  0  0  0  0
   -6.6159   -4.0211   -3.4159 H   0  0  0  0  0  0  0  0  0  0  0  0
   -3.6483   -8.8322   -2.8476 H   0  0  0  0  0  0  0  0  0  0  0  0
   -3.9632   -9.6321   -1.2634 H   0  0  0  0  0  0  0  0  0  0  0  0
   -4.9962   -9.9774   -2.7122 H   0  0  0  0  0  0  0  0  0  0  0  0
   -6.1395   -6.5994    0.3205 H   0  0  0  0  0  0  0  0  0  0  0  0
   -7.8571   -7.1683    1.9878 H   0  0  0  0  0  0  0  0  0  0  0  0
   -8.6803  -10.8416   -0.0815 H   0  0  0  0  0  0  0  0  0  0  0  0
   -6.9498  -10.3154   -1.7360 H   0  0  0  0  0  0  0  0  0  0  0  0
   -4.3826   -3.1191   -0.7412 H   0  0  0  0  0  0  0  0  0  0  0  0
   -3.9571   -1.4334    0.9407 H   0  0  0  0  0  0  0  0  0  0  0  0
   -0.0652    4.5729    2.0969 H   0  0  0  0  0  0  0  0  0  0  0  0
    0.8143    6.4219    0.8294 H   0  0  0  0  0  0  0  0  0  0  0  0
  1 45  1  0  0  0  0
  1 46  1  0  0  0  0
  1 47  1  0  0  0  0
  2  1  1  0  0  0  0
  3  2  1  0  0  0  0
  4  3  2  0  0  0  0
  4 48  1  0  0  0  0
  5  4  1  0  0  0  0
  5 49  1  0  0  0  0
  6  5  2  0  0  0  0
  7  6  1  0  0  0  0
  8  6  1  0  0  0  0
  8 50  1  0  0  0  0
  9  8  2  0  0  0  0
  9  3  1  0  0  0  0
  9 51  1  0  0  0  0
 10  2  1  0  0  0  0
 11 10  2  0  0  0  0
 11 52  1  0  0  0  0
 12 11  1  0  0  0  0
 12 53  1  0  0  0  0
 13 12  2  0  0  0  0
 14 13  1  0  0  0  0
 14 54  1  0  0  0  0
 14 55  1  0  0  0  0
 15 14  1  0  0  0  0
 16 15  2  0  0  0  0
 16 56  1  0  0  0  0
 17 16  1  0  0  0  0
 17 57  1  0  0  0  0
 18 17  2  0  0  0  0
 19 18  1  0  0  0  0
 19 58  1  0  0  0  0
 20 19  2  0  0  0  0
 20 15  1  0  0  0  0
 20 59  1  0  0  0  0
 21 18  1  0  0  0  0
 22 21  2  0  0  0  0
 22 60  1  0  0  0  0
 23 22  1  0  0  0  0
 23 61  1  0  0  0  0
 24 23  2  0  0  0  0
 25 24  1  0  0  0  0
 25 62  1  0  0  0  0
 25 63  1  0  0  0  0
 26 25  1  0  0  0  0
 27 26  2  0  0  0  0
 27 64  1  0  0  0  0
 28 27  1  0  0  0  0
 28 65  1  0  0  0  0
 29 28  2  0  0  0  0
 30 29  1  0  0  0  0
 30 66  1  0  0  0  0
 31 30  2  0  0  0  0
 31 26  1  0  0  0  0
 31 67  1  0  0  0  0
 32 29  1  0  0  0  0
 33 32  1  0  0  0  0
 33 68  1  0  0  0  0
 33 69  1  0  0  0  0
 33 70  1  0  0  0  0
 34 32  1  0  0  0  0
 35 34  2  0  0  0  0
 35 71  1  0  0  0  0
 36 35  1  0  0  0  0
 36 72  1  0  0  0  0
 37 36  2  0  0  0  0
 38 37  1  0  0  0  0
 39 37  1  0  0  0  0
 39 73  1  0  0  0  0
 40 39  2  0  0  0  0
 40 34  1  0  0  0  0
 40 74  1  0  0  0  0
 41 24  1  0  0  0  0
 41 75  1  0  0  0  0
 42 41  2  0  0  0  0
 42 21  1  0  0  0  0
 42 76  1  0  0  0  0
 43 13  1  0  0  0  0
 43 77  1  0  0  0  0
 44 43  2  0  0  0  0
 44 10  1  0  0  0  0
 44 78  1  0  0  0  0
M  CHG  2  13   1  26   1
M  END
>  <MOL Chiral Flag>
0

>  <energy>
237.32466275685871

$$$$
