>431.sdf
 OpenBabel10062213403D

 67 69  0  0  0  0  0  0  0  0999 V2000
    6.0703    2.9077    1.8221 C   0  0  0  0  0  0  0  0  0  0  0  0
    4.8081    2.7251    1.2876 O   0  0  0  0  0  0  0  0  0  0  0  0
    4.5506    2.1646    0.0747 C   0  0  0  0  0  0  0  0  0  0  0  0
    5.4693    1.8047   -0.6498 O   0  0  0  0  0  0  0  0  0  0  0  0
    3.1454    1.9627   -0.3593 C   0  0  0  0  0  0  0  0  0  0  0  0
    2.0798    2.3760    0.4573 C   0  0  0  0  0  0  0  0  0  0  0  0
    0.7467    2.1630    0.0640 C   0  0  0  0  0  0  0  0  0  0  0  0
   -0.2537    2.5678    0.8723 O   0  0  0  0  0  0  0  0  0  0  0  0
    0.4752    1.5154   -1.1686 C   0  0  0  0  0  0  0  0  0  0  0  0
   -0.7799    1.2151   -1.6155 O   0  0  0  0  0  0  0  0  0  0  0  0
   -2.0179    1.4223   -1.0286 C   0  0  1  0  0  0  0  0  0  0  0  0
   -3.1521    1.1198   -2.0141 C   0  0  0  0  0  0  0  0  0  0  0  0
   -3.0543    0.6006   -3.2695 C   0  0  0  0  0  0  0  0  0  0  0  0
   -1.7483    0.2181   -3.9201 C   0  0  0  0  0  0  0  0  0  0  0  0
   -4.3134    0.3835   -4.0738 C   0  0  0  0  0  0  0  0  0  0  0  0
   -2.2552    0.6233    0.2745 C   0  0  0  0  0  0  0  0  0  0  0  0
   -3.3833    0.9501    1.0628 C   0  0  0  0  0  0  0  0  0  0  0  0
   -4.2061    1.9583    0.6579 O   0  0  0  0  0  0  0  0  0  0  0  0
   -5.3488    2.3803    1.3071 C   0  0  0  0  0  0  0  0  0  0  0  0
   -3.6346    0.2453    2.2492 C   0  0  0  0  0  0  0  0  0  0  0  0
   -2.7769   -0.7532    2.6985 C   0  0  0  0  0  0  0  0  0  0  0  0
   -3.0704   -1.3289    3.8883 O   0  0  0  0  0  0  0  0  0  0  0  0
   -1.6234   -1.0934    1.9420 C   0  0  0  0  0  0  0  0  0  0  0  0
   -0.6500   -2.1130    2.4649 C   0  0  0  0  0  0  0  0  0  0  0  0
   -1.0656   -3.1285    3.0023 O   0  0  0  0  0  0  0  0  0  0  0  0
    0.8118   -1.7412    2.6641 C   0  0  0  0  0  0  0  0  0  0  0  0
    1.8278   -2.8578    2.3519 C   0  0  0  0  0  0  0  0  0  0  0  0
    2.0774   -3.0912    0.8863 C   0  0  0  0  0  0  0  0  0  0  0  0
    2.6671   -2.0821    0.1016 C   0  0  0  0  0  0  0  0  0  0  0  0
    2.9196   -2.3042   -1.2549 C   0  0  0  0  0  0  0  0  0  0  0  0
    2.5913   -3.5310   -1.8365 C   0  0  0  0  0  0  0  0  0  0  0  0
    2.0122   -4.5402   -1.0621 C   0  0  0  0  0  0  0  0  0  0  0  0
    1.7576   -4.3246    0.2961 C   0  0  0  0  0  0  0  0  0  0  0  0
   -1.3883   -0.4185    0.7120 C   0  0  0  0  0  0  0  0  0  0  0  0
   -0.3706   -0.7997   -0.0806 O   0  0  0  0  0  0  0  0  0  0  0  0
    1.5465    1.1231   -1.9789 C   0  0  0  0  0  0  0  0  0  0  0  0
    2.8647    1.3438   -1.5855 C   0  0  0  0  0  0  0  0  0  0  0  0
    6.8811    2.5437    1.1552 H   0  0  0  0  0  0  0  0  0  0  0  0
    6.2307    3.9879    2.0154 H   0  0  0  0  0  0  0  0  0  0  0  0
    6.1381    2.3588    2.7841 H   0  0  0  0  0  0  0  0  0  0  0  0
    2.2806    2.8584    1.4059 H   0  0  0  0  0  0  0  0  0  0  0  0
   -0.0848    3.0021    1.7206 H   0  0  0  0  0  0  0  0  0  0  0  0
   -2.0812    2.5082   -0.8004 H   0  0  0  0  0  0  0  0  0  0  0  0
   -4.1515    1.3508   -1.6639 H   0  0  0  0  0  0  0  0  0  0  0  0
   -1.0983    1.1104   -4.0352 H   0  0  0  0  0  0  0  0  0  0  0  0
   -1.9205   -0.1945   -4.9369 H   0  0  0  0  0  0  0  0  0  0  0  0
   -1.2365   -0.5655   -3.3225 H   0  0  0  0  0  0  0  0  0  0  0  0
   -4.4074   -0.6922   -4.3316 H   0  0  0  0  0  0  0  0  0  0  0  0
   -5.2316    0.6880   -3.5270 H   0  0  0  0  0  0  0  0  0  0  0  0
   -4.2598    0.9764   -5.0110 H   0  0  0  0  0  0  0  0  0  0  0  0
   -6.0860    1.5512    1.3659 H   0  0  0  0  0  0  0  0  0  0  0  0
   -5.1008    2.7498    2.3248 H   0  0  0  0  0  0  0  0  0  0  0  0
   -5.8033    3.2130    0.7324 H   0  0  0  0  0  0  0  0  0  0  0  0
   -4.4938    0.4899    2.8593 H   0  0  0  0  0  0  0  0  0  0  0  0
   -2.5140   -1.9660    4.3486 H   0  0  0  0  0  0  0  0  0  0  0  0
    1.0810   -0.7815    2.1734 H   0  0  0  0  0  0  0  0  0  0  0  0
    0.9045   -1.5622    3.7576 H   0  0  0  0  0  0  0  0  0  0  0  0
    1.4960   -3.7891    2.8611 H   0  0  0  0  0  0  0  0  0  0  0  0
    2.8073   -2.5787    2.7984 H   0  0  0  0  0  0  0  0  0  0  0  0
    2.9305   -1.1285    0.5428 H   0  0  0  0  0  0  0  0  0  0  0  0
    3.3728   -1.5272   -1.8553 H   0  0  0  0  0  0  0  0  0  0  0  0
    2.7895   -3.7009   -2.8867 H   0  0  0  0  0  0  0  0  0  0  0  0
    1.7631   -5.4913   -1.5139 H   0  0  0  0  0  0  0  0  0  0  0  0
    1.3125   -5.1160    0.8859 H   0  0  0  0  0  0  0  0  0  0  0  0
    0.1341   -1.6009    0.0700 H   0  0  0  0  0  0  0  0  0  0  0  0
    1.3522    0.6267   -2.9217 H   0  0  0  0  0  0  0  0  0  0  0  0
    3.6668    1.0164   -2.2350 H   0  0  0  0  0  0  0  0  0  0  0  0
  1 38  1  0  0  0  0
  1 39  1  0  0  0  0
  1 40  1  0  0  0  0
  2  1  1  0  0  0  0
  3  2  1  0  0  0  0
  4  3  2  0  0  0  0
  5  3  1  0  0  0  0
  6  5  2  0  0  0  0
  6 41  1  0  0  0  0
  7  6  1  0  0  0  0
  8  7  1  0  0  0  0
  8 42  1  0  0  0  0
  9  7  2  0  0  0  0
 10  9  1  0  0  0  0
 11 10  1  0  0  0  0
 11 43  1  1  0  0  0
 12 11  1  0  0  0  0
 12 44  1  0  0  0  0
 13 12  2  0  0  0  0
 14 13  1  0  0  0  0
 14 45  1  0  0  0  0
 14 46  1  0  0  0  0
 14 47  1  0  0  0  0
 15 13  1  0  0  0  0
 15 48  1  0  0  0  0
 15 49  1  0  0  0  0
 15 50  1  0  0  0  0
 16 11  1  0  0  0  0
 17 16  2  0  0  0  0
 18 17  1  0  0  0  0
 19 18  1  0  0  0  0
 19 51  1  0  0  0  0
 19 52  1  0  0  0  0
 19 53  1  0  0  0  0
 20 17  1  0  0  0  0
 20 54  1  0  0  0  0
 21 20  2  0  0  0  0
 22 21  1  0  0  0  0
 22 55  1  0  0  0  0
 23 21  1  0  0  0  0
 24 23  1  0  0  0  0
 25 24  2  0  0  0  0
 26 24  1  0  0  0  0
 26 56  1  0  0  0  0
 26 57  1  0  0  0  0
 27 26  1  0  0  0  0
 27 58  1  0  0  0  0
 27 59  1  0  0  0  0
 28 27  1  0  0  0  0
 29 28  2  0  0  0  0
 29 60  1  0  0  0  0
 30 29  1  0  0  0  0
 30 61  1  0  0  0  0
 31 30  2  0  0  0  0
 31 62  1  0  0  0  0
 32 31  1  0  0  0  0
 32 63  1  0  0  0  0
 33 32  2  0  0  0  0
 33 28  1  0  0  0  0
 33 64  1  0  0  0  0
 34 23  2  0  0  0  0
 34 16  1  0  0  0  0
 35 34  1  0  0  0  0
 35 65  1  0  0  0  0
 36  9  1  0  0  0  0
 36 66  1  0  0  0  0
 37 36  2  0  0  0  0
 37  5  1  0  0  0  0
 37 67  1  0  0  0  0
M  END
>  <MOL Chiral Flag>
0

>  <energy>
130.43978495383391

$$$$
