>438.sdf
 OpenBabel10062213473D

 26 28  0  0  0  0  0  0  0  0999 V2000
    0.9590    0.7760    1.2836 N   0  0  0  0  0  0  0  0  0  0  0  0
    0.8855    0.0099    0.0909 C   0  0  0  0  0  0  0  0  0  0  0  0
    1.9579   -0.4966   -0.6318 C   0  0  0  0  0  0  0  0  0  0  0  0
    1.3948   -0.9770   -1.7998 C   0  0  0  0  0  0  0  0  0  0  0  0
    0.0594   -0.7957   -1.7580 N   0  0  0  0  0  0  0  0  0  0  0  0
   -0.2559   -0.2257   -0.6030 N   0  0  0  0  0  0  0  0  0  0  0  0
   -1.6249    0.0799   -0.2508 C   0  0  0  0  0  0  0  0  0  0  0  0
   -2.1428   -0.1119    1.0620 C   0  0  0  0  0  0  0  0  0  0  0  0
   -1.2126   -0.8428    2.3705 Cl  0  0  0  0  0  0  0  0  0  0  0  0
   -3.4821    0.1955    1.3319 C   0  0  0  0  0  0  0  0  0  0  0  0
   -4.3179    0.6741    0.3241 C   0  0  0  0  0  0  0  0  0  0  0  0
   -3.8292    0.8319   -0.9713 C   0  0  0  0  0  0  0  0  0  0  0  0
   -2.4968    0.5292   -1.2602 C   0  0  0  0  0  0  0  0  0  0  0  0
    3.4048   -0.5456   -0.3222 C   0  0  0  0  0  0  0  0  0  0  0  0
    4.3518   -0.8456   -1.2301 N   0  0  0  0  0  0  0  0  0  0  0  0
    5.5014   -0.8290   -0.5699 N   0  0  0  0  0  0  0  0  0  0  0  0
    5.2752   -0.5458    0.7037 N   0  0  0  0  0  0  0  0  0  0  0  0
    3.9786   -0.3678    0.8814 N   0  0  0  0  0  0  0  0  0  0  0  0
    1.8601    1.0400    1.6907 H   0  0  0  0  0  0  0  0  0  0  0  0
    0.1275    1.2674    1.6356 H   0  0  0  0  0  0  0  0  0  0  0  0
    1.9186   -1.4385   -2.6268 H   0  0  0  0  0  0  0  0  0  0  0  0
   -3.8819    0.0439    2.3267 H   0  0  0  0  0  0  0  0  0  0  0  0
   -5.3523    0.9039    0.5445 H   0  0  0  0  0  0  0  0  0  0  0  0
   -4.4853    1.1876   -1.7551 H   0  0  0  0  0  0  0  0  0  0  0  0
   -2.1354    0.6597   -2.2725 H   0  0  0  0  0  0  0  0  0  0  0  0
    3.5426   -0.1770    1.8057 H   0  0  0  0  0  0  0  0  0  0  0  0
  1 19  1  0  0  0  0
  1 20  1  0  0  0  0
  2  1  1  0  0  0  0
  3  2  2  0  0  0  0
  4  3  1  0  0  0  0
  4 21  1  0  0  0  0
  5  4  2  0  0  0  0
  6  5  1  0  0  0  0
  6  2  1  0  0  0  0
  7  6  1  0  0  0  0
  8  7  2  0  0  0  0
  9  8  1  0  0  0  0
 10  8  1  0  0  0  0
 10 22  1  0  0  0  0
 11 10  2  0  0  0  0
 11 23  1  0  0  0  0
 12 11  1  0  0  0  0
 12 24  1  0  0  0  0
 13 12  2  0  0  0  0
 13  7  1  0  0  0  0
 13 25  1  0  0  0  0
 14  3  1  0  0  0  0
 15 14  2  0  0  0  0
 16 15  1  0  0  0  0
 17 16  2  0  0  0  0
 18 17  1  0  0  0  0
 18 14  1  0  0  0  0
 18 26  1  0  0  0  0
M  END
>  <MOL Chiral Flag>
0

>  <energy>
83.995565315320277

$$$$
