>443.sdf
 OpenBabel10062213493D

 49 51  0  0  0  0  0  0  0  0999 V2000
    5.6032    0.8859    5.0796 C   0  0  0  0  0  0  0  0  0  0  0  0
    5.1266    1.6371    4.0246 O   0  0  0  0  0  0  0  0  0  0  0  0
    4.1985    1.2206    3.1224 C   0  0  0  0  0  0  0  0  0  0  0  0
    3.6528   -0.0763    3.1464 C   0  0  0  0  0  0  0  0  0  0  0  0
    2.6953   -0.4552    2.2024 C   0  0  0  0  0  0  0  0  0  0  0  0
    2.2461    0.4471    1.2214 C   0  0  0  0  0  0  0  0  0  0  0  0
    1.2443   -0.0059    0.2924 N   0  0  0  0  0  0  0  0  0  0  0  0
    0.4627    0.7850   -0.5077 C   0  0  0  0  0  0  0  0  0  0  0  0
    0.5350    2.0001   -0.4402 O   0  0  0  0  0  0  0  0  0  0  0  0
   -0.5597    0.1747   -1.4162 C   0  0  0  0  0  0  0  0  0  0  0  0
   -0.3568   -1.0304   -2.1339 C   0  0  0  0  0  0  0  0  0  0  0  0
    0.8671   -1.9019   -2.2383 C   0  0  0  0  0  0  0  0  0  0  0  0
    0.5749   -3.2823   -1.7295 C   0  0  0  0  0  0  0  0  0  0  0  0
    0.6650   -4.2393   -2.4867 O   0  0  0  0  0  0  0  0  0  0  0  0
    0.2129   -3.4553   -0.4312 O   0  0  0  0  0  0  0  0  0  0  0  0
   -0.0849   -4.6821    0.1273 C   0  0  0  0  0  0  0  0  0  0  0  0
   -0.4116   -4.5040    1.4576 F   0  0  0  0  0  0  0  0  0  0  0  0
    1.0109   -5.5232    0.0429 F   0  0  0  0  0  0  0  0  0  0  0  0
   -1.1621   -5.2543   -0.5268 F   0  0  0  0  0  0  0  0  0  0  0  0
   -1.7387   -1.3266   -2.9915 S   0  0  0  0  0  0  0  0  0  0  0  0
   -2.6448   -0.0136   -2.5647 C   0  0  0  0  0  0  0  0  0  0  0  0
   -1.8641    0.7605   -1.6696 C   0  0  0  0  0  0  0  0  0  0  0  0
   -2.3942    1.9948   -0.9468 C   0  0  0  0  0  0  0  0  0  0  0  0
   -3.7564    1.6814   -0.3186 C   0  0  0  0  0  0  0  0  0  0  0  0
   -4.9354    1.8543   -1.2910 C   0  0  0  0  0  0  0  0  0  0  0  0
   -4.6592    1.5452   -2.7691 C   0  0  0  0  0  0  0  0  0  0  0  0
   -4.0512    0.1820   -3.0694 C   0  0  0  0  0  0  0  0  0  0  0  0
    2.8114    1.7449    1.1956 C   0  0  0  0  0  0  0  0  0  0  0  0
    3.7752    2.1169    2.1379 C   0  0  0  0  0  0  0  0  0  0  0  0
    6.1051   -0.0318    4.7062 H   0  0  0  0  0  0  0  0  0  0  0  0
    4.7709    0.6170    5.7650 H   0  0  0  0  0  0  0  0  0  0  0  0
    6.3439    1.4871    5.6457 H   0  0  0  0  0  0  0  0  0  0  0  0
    3.9605   -0.7971    3.8916 H   0  0  0  0  0  0  0  0  0  0  0  0
    2.2869   -1.4575    2.2443 H   0  0  0  0  0  0  0  0  0  0  0  0
    1.0374   -1.0141    0.3013 H   0  0  0  0  0  0  0  0  0  0  0  0
    1.7336   -1.4866   -1.6936 H   0  0  0  0  0  0  0  0  0  0  0  0
    1.1657   -1.9461   -3.3082 H   0  0  0  0  0  0  0  0  0  0  0  0
   -1.7264    2.2415   -0.1048 H   0  0  0  0  0  0  0  0  0  0  0  0
   -2.4511    2.8950   -1.5939 H   0  0  0  0  0  0  0  0  0  0  0  0
   -3.7196    0.6463    0.0898 H   0  0  0  0  0  0  0  0  0  0  0  0
   -3.9621    2.3538    0.5435 H   0  0  0  0  0  0  0  0  0  0  0  0
   -5.2366    2.9254   -1.2832 H   0  0  0  0  0  0  0  0  0  0  0  0
   -5.7960    1.2684   -0.9018 H   0  0  0  0  0  0  0  0  0  0  0  0
   -5.6248    1.6378   -3.3125 H   0  0  0  0  0  0  0  0  0  0  0  0
   -3.9809    2.3161   -3.1949 H   0  0  0  0  0  0  0  0  0  0  0  0
   -4.7056   -0.6351   -2.6978 H   0  0  0  0  0  0  0  0  0  0  0  0
   -4.0029    0.1068   -4.1775 H   0  0  0  0  0  0  0  0  0  0  0  0
    2.5430    2.4792    0.4577 H   0  0  0  0  0  0  0  0  0  0  0  0
    4.1963    3.1141    2.1032 H   0  0  0  0  0  0  0  0  0  0  0  0
  1 30  1  0  0  0  0
  1 31  1  0  0  0  0
  1 32  1  0  0  0  0
  2  1  1  0  0  0  0
  3  2  1  0  0  0  0
  4  3  2  0  0  0  0
  4 33  1  0  0  0  0
  5  4  1  0  0  0  0
  5 34  1  0  0  0  0
  6  5  2  0  0  0  0
  7  6  1  0  0  0  0
  7 35  1  0  0  0  0
  8  7  1  0  0  0  0
  9  8  2  0  0  0  0
 10  8  1  0  0  0  0
 11 10  2  0  0  0  0
 12 11  1  0  0  0  0
 12 36  1  0  0  0  0
 12 37  1  0  0  0  0
 13 12  1  0  0  0  0
 14 13  2  0  0  0  0
 15 13  1  0  0  0  0
 16 15  1  0  0  0  0
 17 16  1  0  0  0  0
 18 16  1  0  0  0  0
 19 16  1  0  0  0  0
 20 11  1  0  0  0  0
 21 20  1  0  0  0  0
 22 21  2  0  0  0  0
 22 10  1  0  0  0  0
 23 22  1  0  0  0  0
 23 38  1  0  0  0  0
 23 39  1  0  0  0  0
 24 23  1  0  0  0  0
 24 40  1  0  0  0  0
 24 41  1  0  0  0  0
 25 24  1  0  0  0  0
 25 42  1  0  0  0  0
 25 43  1  0  0  0  0
 26 25  1  0  0  0  0
 26 44  1  0  0  0  0
 26 45  1  0  0  0  0
 27 26  1  0  0  0  0
 27 21  1  0  0  0  0
 27 46  1  0  0  0  0
 27 47  1  0  0  0  0
 28  6  1  0  0  0  0
 28 48  1  0  0  0  0
 29 28  2  0  0  0  0
 29  3  1  0  0  0  0
 29 49  1  0  0  0  0
M  END
>  <MOL Chiral Flag>
0

>  <energy>
-7.5327483527466654

$$$$
