>45.sdf
 OpenBabel10052218083D

 49 51  0  0  0  0  0  0  0  0999 V2000
    5.1083    1.7471    0.2241 C   0  0  0  0  0  0  0  0  0  0  0  0
    5.0732    0.3685    0.2619 O   0  0  0  0  0  0  0  0  0  0  0  0
    3.9585   -0.3908    0.0814 C   0  0  0  0  0  0  0  0  0  0  0  0
    4.0416   -1.7644    0.3312 C   0  0  0  0  0  0  0  0  0  0  0  0
    2.9128   -2.5790    0.2043 C   0  0  0  0  0  0  0  0  0  0  0  0
    1.6817   -2.0306   -0.1874 C   0  0  0  0  0  0  0  0  0  0  0  0
    0.4510   -2.9119   -0.2764 C   0  0  0  0  0  0  0  0  0  0  0  0
   -0.6226   -2.4228    0.6307 N   0  3  2  0  0  0  0  0  0  0  0  0
   -1.3015   -3.4701    1.3902 C   0  0  0  0  0  0  0  0  0  0  0  0
   -2.5382   -2.7510    1.9199 C   0  0  0  0  0  0  0  0  0  0  0  0
   -2.8831   -1.7359    0.8861 N   0  3  1  0  0  0  0  0  0  0  0  0
   -2.9947   -0.3797    1.4980 C   0  0  0  0  0  0  0  0  0  0  0  0
   -2.8546    0.7564    0.5049 C   0  0  0  0  0  0  0  0  0  0  0  0
   -1.6738    1.5155    0.5210 C   0  0  0  0  0  0  0  0  0  0  0  0
   -1.4717    2.5355   -0.4003 C   0  0  0  0  0  0  0  0  0  0  0  0
   -2.4608    2.8366   -1.3540 C   0  0  0  0  0  0  0  0  0  0  0  0
   -2.2929    3.8292   -2.2698 O   0  0  0  0  0  0  0  0  0  0  0  0
   -1.1454    4.5889   -2.4021 C   0  0  0  0  0  0  0  0  0  0  0  0
   -3.6503    2.0902   -1.3654 C   0  0  0  0  0  0  0  0  0  0  0  0
   -3.8456    1.0455   -0.4469 C   0  0  0  0  0  0  0  0  0  0  0  0
   -1.7704   -1.8595   -0.0882 C   0  0  0  0  0  0  0  0  0  0  0  0
    1.6018   -0.6567   -0.4711 C   0  0  0  0  0  0  0  0  0  0  0  0
    2.7285    0.1609   -0.3316 C   0  0  0  0  0  0  0  0  0  0  0  0
    6.1442    2.0876    0.4280 H   0  0  0  0  0  0  0  0  0  0  0  0
    4.4425    2.1639    1.0109 H   0  0  0  0  0  0  0  0  0  0  0  0
    4.8028    2.1214   -0.7753 H   0  0  0  0  0  0  0  0  0  0  0  0
    4.9812   -2.2010    0.6442 H   0  0  0  0  0  0  0  0  0  0  0  0
    2.9987   -3.6360    0.4220 H   0  0  0  0  0  0  0  0  0  0  0  0
    0.7345   -3.9549   -0.0105 H   0  0  0  0  0  0  0  0  0  0  0  0
    0.1115   -2.9444   -1.3364 H   0  0  0  0  0  0  0  0  0  0  0  0
   -0.2562   -1.7127    1.3125 H   0  0  0  0  0  0  0  0  0  0  0  0
   -0.6710   -3.9132    2.1940 H   0  0  0  0  0  0  0  0  0  0  0  0
   -1.6249   -4.2840    0.6996 H   0  0  0  0  0  0  0  0  0  0  0  0
   -2.2035   -2.2652    2.8661 H   0  0  0  0  0  0  0  0  0  0  0  0
   -3.3714   -3.4333    2.1905 H   0  0  0  0  0  0  0  0  0  0  0  0
   -3.7826   -1.9750    0.4045 H   0  0  0  0  0  0  0  0  0  0  0  0
   -2.1855   -0.2408    2.2470 H   0  0  0  0  0  0  0  0  0  0  0  0
   -3.9527   -0.2823    2.0571 H   0  0  0  0  0  0  0  0  0  0  0  0
   -0.8908    1.2955    1.2355 H   0  0  0  0  0  0  0  0  0  0  0  0
   -0.5390    3.0801   -0.3643 H   0  0  0  0  0  0  0  0  0  0  0  0
   -1.2844    5.3270   -3.2171 H   0  0  0  0  0  0  0  0  0  0  0  0
   -0.2820    3.9370   -2.6596 H   0  0  0  0  0  0  0  0  0  0  0  0
   -0.9333    5.1412   -1.4610 H   0  0  0  0  0  0  0  0  0  0  0  0
   -4.4196    2.3150   -2.0938 H   0  0  0  0  0  0  0  0  0  0  0  0
   -4.7637    0.4713   -0.4763 H   0  0  0  0  0  0  0  0  0  0  0  0
   -1.5173   -0.9404   -0.6476 H   0  0  0  0  0  0  0  0  0  0  0  0
   -2.0948   -2.5819   -0.8803 H   0  0  0  0  0  0  0  0  0  0  0  0
    0.6664   -0.2124   -0.7799 H   0  0  0  0  0  0  0  0  0  0  0  0
    2.6312    1.2179   -0.5381 H   0  0  0  0  0  0  0  0  0  0  0  0
  1 24  1  0  0  0  0
  1 25  1  0  0  0  0
  1 26  1  0  0  0  0
  2  1  1  0  0  0  0
  3  2  1  0  0  0  0
  4  3  2  0  0  0  0
  4 27  1  0  0  0  0
  5  4  1  0  0  0  0
  5 28  1  0  0  0  0
  6  5  2  0  0  0  0
  7  6  1  0  0  0  0
  7 29  1  0  0  0  0
  7 30  1  0  0  0  0
  8  7  1  0  0  0  0
  8 31  1  1  0  0  0
  9  8  1  0  0  0  0
  9 32  1  0  0  0  0
  9 33  1  0  0  0  0
 10  9  1  0  0  0  0
 10 34  1  0  0  0  0
 10 35  1  0  0  0  0
 11 10  1  0  0  0  0
 11 36  1  6  0  0  0
 12 11  1  0  0  0  0
 12 37  1  0  0  0  0
 12 38  1  0  0  0  0
 13 12  1  0  0  0  0
 14 13  2  0  0  0  0
 14 39  1  0  0  0  0
 15 14  1  0  0  0  0
 15 40  1  0  0  0  0
 16 15  2  0  0  0  0
 17 16  1  0  0  0  0
 18 17  1  0  0  0  0
 18 41  1  0  0  0  0
 18 42  1  0  0  0  0
 18 43  1  0  0  0  0
 19 16  1  0  0  0  0
 19 44  1  0  0  0  0
 20 19  2  0  0  0  0
 20 13  1  0  0  0  0
 20 45  1  0  0  0  0
 21 11  1  0  0  0  0
 21  8  1  0  0  0  0
 21 46  1  0  0  0  0
 21 47  1  0  0  0  0
 22  6  1  0  0  0  0
 22 48  1  0  0  0  0
 23 22  2  0  0  0  0
 23  3  1  0  0  0  0
 23 49  1  0  0  0  0
M  CHG  2   8   1  11   1
M  END
>  <MOL Chiral Flag>
0

>  <energy>
47.375163320604685

$$$$
