>450.sdf
 OpenBabel10062214013D

 33 35  0  0  0  0  0  0  0  0999 V2000
    3.3102   -1.9119    1.8209 O   0  5  0  0  0  0  0  0  0  0  0  0
    2.1706   -1.2588    1.8292 N   0  3  0  0  0  0  0  0  0  0  0  0
    1.3731   -1.5039    2.6815 O   0  0  0  0  0  0  0  0  0  0  0  0
    1.9177   -0.2114    0.8880 C   0  0  0  0  0  0  0  0  0  0  0  0
    0.7587    0.5625    0.7960 C   0  0  0  0  0  0  0  0  0  0  0  0
   -0.5065    0.4477    1.5949 C   0  0  0  0  0  0  0  0  0  0  0  0
   -1.4257   -1.0770    1.1660 S   0  0  0  0  0  0  0  0  0  0  0  0
   -1.3544   -2.0264    2.3711 O   0  0  0  0  0  0  0  0  0  0  0  0
   -0.5923   -1.9072    0.1750 O   0  0  0  0  0  0  0  0  0  0  0  0
   -3.1304   -1.1199    0.6004 C   0  0  0  0  0  0  0  0  0  0  0  0
   -3.4378   -1.4542   -0.7276 C   0  0  0  0  0  0  0  0  0  0  0  0
   -4.7713   -1.4928   -1.1496 C   0  0  0  0  0  0  0  0  0  0  0  0
   -5.7995   -1.1959   -0.2500 C   0  0  0  0  0  0  0  0  0  0  0  0
   -5.4957   -0.8580    1.0721 C   0  0  0  0  0  0  0  0  0  0  0  0
   -4.1639   -0.8197    1.4970 C   0  0  0  0  0  0  0  0  0  0  0  0
    0.9124    1.4690   -0.1951 N   0  0  0  0  0  0  0  0  0  0  0  0
    2.1377    1.2221   -0.7022 C   0  0  0  0  0  0  0  0  0  0  0  0
    2.7709    0.2111   -0.0726 N   0  0  0  0  0  0  0  0  0  0  0  0
    4.0174   -0.2043   -0.4402 C   0  0  0  0  0  0  0  0  0  0  0  0
    4.6545    0.4385   -1.5133 C   0  0  0  0  0  0  0  0  0  0  0  0
    6.3900   -0.1251   -2.0760 Br  0  0  0  0  0  0  0  0  0  0  0  0
    4.0048    1.4952   -2.1769 C   0  0  0  0  0  0  0  0  0  0  0  0
    2.7269    1.9001   -1.7679 C   0  0  0  0  0  0  0  0  0  0  0  0
    1.8242    3.3302   -2.6594 Br  0  0  0  0  0  0  0  0  0  0  0  0
   -1.1735    1.2933    1.3249 H   0  0  0  0  0  0  0  0  0  0  0  0
   -0.3034    0.5160    2.6841 H   0  0  0  0  0  0  0  0  0  0  0  0
   -2.6500   -1.6867   -1.4322 H   0  0  0  0  0  0  0  0  0  0  0  0
   -5.0079   -1.7542   -2.1731 H   0  0  0  0  0  0  0  0  0  0  0  0
   -6.8309   -1.2274   -0.5770 H   0  0  0  0  0  0  0  0  0  0  0  0
   -6.2918   -0.6273    1.7680 H   0  0  0  0  0  0  0  0  0  0  0  0
   -3.9353   -0.5588    2.5223 H   0  0  0  0  0  0  0  0  0  0  0  0
    4.5205   -1.0150    0.0596 H   0  0  0  0  0  0  0  0  0  0  0  0
    4.4900    1.9932   -3.0062 H   0  0  0  0  0  0  0  0  0  0  0  0
  2  1  1  0  0  0  0
  3  2  2  0  0  0  0
  4  2  1  0  0  0  0
  5  4  2  0  0  0  0
  6  5  1  0  0  0  0
  6 25  1  0  0  0  0
  6 26  1  0  0  0  0
  7  6  1  0  0  0  0
  8  7  2  0  0  0  0
  9  7  2  0  0  0  0
 10  7  1  0  0  0  0
 11 10  2  0  0  0  0
 11 27  1  0  0  0  0
 12 11  1  0  0  0  0
 12 28  1  0  0  0  0
 13 12  2  0  0  0  0
 13 29  1  0  0  0  0
 14 13  1  0  0  0  0
 14 30  1  0  0  0  0
 15 14  2  0  0  0  0
 15 10  1  0  0  0  0
 15 31  1  0  0  0  0
 16  5  1  0  0  0  0
 17 16  2  0  0  0  0
 18 17  1  0  0  0  0
 18  4  1  0  0  0  0
 19 18  1  0  0  0  0
 19 32  1  0  0  0  0
 20 19  2  0  0  0  0
 21 20  1  0  0  0  0
 22 20  1  0  0  0  0
 22 33  1  0  0  0  0
 23 22  2  0  0  0  0
 23 17  1  0  0  0  0
 24 23  1  0  0  0  0
M  CHG  2   1  -1   2   1
M  END
>  <MOL Chiral Flag>
0

>  <energy>
59.853828008034995

$$$$
