>456.sdf
 OpenBabel10062214073D

 44 46  0  0  0  0  0  0  0  0999 V2000
    7.3516   -0.2502   -1.5044 C   0  0  0  0  0  0  0  0  0  0  0  0
    6.9148    1.4919   -1.7924 S   0  0  0  0  0  0  0  0  0  0  0  0
    5.4884    1.4567   -0.7073 C   0  0  0  0  0  0  0  0  0  0  0  0
    5.6645    1.5541    0.6364 N   0  0  0  0  0  0  0  0  0  0  0  0
    4.6002    1.5496    1.4815 C   0  0  0  0  0  0  0  0  0  0  0  0
    4.8036    1.6319    2.8764 N   0  0  0  0  0  0  0  0  0  0  0  0
    3.3398    1.4597    0.9839 N   0  0  0  0  0  0  0  0  0  0  0  0
    3.1096    1.3581   -0.3547 C   0  0  0  0  0  0  0  0  0  0  0  0
    1.7194    1.2548   -0.8689 C   0  0  0  0  0  0  0  0  0  0  0  0
    0.6641    1.3919   -0.0397 C   0  0  0  0  0  0  0  0  0  0  0  0
   -0.7680    1.2911   -0.4424 C   0  0  0  0  0  0  0  0  0  0  0  0
   -1.1901    0.8908   -1.7283 C   0  0  0  0  0  0  0  0  0  0  0  0
   -2.5580    0.7827   -2.0217 C   0  0  0  0  0  0  0  0  0  0  0  0
   -3.5225    1.0851   -1.0380 C   0  0  0  0  0  0  0  0  0  0  0  0
   -4.8585    0.9738   -1.2587 O   0  0  0  0  0  0  0  0  0  0  0  0
   -5.4525    0.3836   -2.3579 C   0  0  0  0  0  0  0  0  0  0  0  0
   -6.9579    0.3562   -2.2185 C   0  0  0  0  0  0  0  0  0  0  0  0
   -7.6177    0.9642   -1.1293 C   0  0  0  0  0  0  0  0  0  0  0  0
   -9.0117    0.9078   -1.0292 C   0  0  0  0  0  0  0  0  0  0  0  0
   -9.7589    0.2440   -2.0045 C   0  0  0  0  0  0  0  0  0  0  0  0
   -9.1149   -0.3614   -3.0861 C   0  0  0  0  0  0  0  0  0  0  0  0
   -7.7216   -0.3034   -3.1961 C   0  0  0  0  0  0  0  0  0  0  0  0
   -3.0985    1.4991    0.2256 C   0  0  0  0  0  0  0  0  0  0  0  0
   -1.7401    1.5939    0.5241 C   0  0  0  0  0  0  0  0  0  0  0  0
    4.1983    1.3486   -1.2353 C   0  0  0  0  0  0  0  0  0  0  0  0
    7.3828   -0.4754   -0.4176 H   0  0  0  0  0  0  0  0  0  0  0  0
    8.3753   -0.4210   -1.8966 H   0  0  0  0  0  0  0  0  0  0  0  0
    6.6453   -0.9166   -2.0407 H   0  0  0  0  0  0  0  0  0  0  0  0
    5.7572    1.6910    3.2610 H   0  0  0  0  0  0  0  0  0  0  0  0
    3.9984    1.6187    3.5195 H   0  0  0  0  0  0  0  0  0  0  0  0
    1.5748    1.0786   -1.9277 H   0  0  0  0  0  0  0  0  0  0  0  0
    0.8578    1.5993    1.0090 H   0  0  0  0  0  0  0  0  0  0  0  0
   -0.4787    0.6427   -2.5017 H   0  0  0  0  0  0  0  0  0  0  0  0
   -2.8567    0.4596   -3.0099 H   0  0  0  0  0  0  0  0  0  0  0  0
   -5.1804    0.9304   -3.2867 H   0  0  0  0  0  0  0  0  0  0  0  0
   -5.0960   -0.6674   -2.4294 H   0  0  0  0  0  0  0  0  0  0  0  0
   -7.0618    1.4830   -0.3593 H   0  0  0  0  0  0  0  0  0  0  0  0
   -9.5128    1.3778   -0.1925 H   0  0  0  0  0  0  0  0  0  0  0  0
  -10.8373    0.1981   -1.9215 H   0  0  0  0  0  0  0  0  0  0  0  0
   -9.6957   -0.8781   -3.8392 H   0  0  0  0  0  0  0  0  0  0  0  0
   -7.2344   -0.7804   -4.0376 H   0  0  0  0  0  0  0  0  0  0  0  0
   -3.8295    1.7332    0.9893 H   0  0  0  0  0  0  0  0  0  0  0  0
   -1.4438    1.9041    1.5188 H   0  0  0  0  0  0  0  0  0  0  0  0
    4.0484    1.2730   -2.3053 H   0  0  0  0  0  0  0  0  0  0  0  0
  1 26  1  0  0  0  0
  1 27  1  0  0  0  0
  1 28  1  0  0  0  0
  2  1  1  0  0  0  0
  3  2  1  0  0  0  0
  4  3  2  0  0  0  0
  5  4  1  0  0  0  0
  6  5  1  0  0  0  0
  6 29  1  0  0  0  0
  6 30  1  0  0  0  0
  7  5  2  0  0  0  0
  8  7  1  0  0  0  0
  9  8  1  0  0  0  0
  9 31  1  0  0  0  0
 10  9  2  0  0  0  0
 10 32  1  0  0  0  0
 11 10  1  0  0  0  0
 12 11  2  0  0  0  0
 12 33  1  0  0  0  0
 13 12  1  0  0  0  0
 13 34  1  0  0  0  0
 14 13  2  0  0  0  0
 15 14  1  0  0  0  0
 16 15  1  0  0  0  0
 16 35  1  0  0  0  0
 16 36  1  0  0  0  0
 17 16  1  0  0  0  0
 18 17  2  0  0  0  0
 18 37  1  0  0  0  0
 19 18  1  0  0  0  0
 19 38  1  0  0  0  0
 20 19  2  0  0  0  0
 20 39  1  0  0  0  0
 21 20  1  0  0  0  0
 21 40  1  0  0  0  0
 22 21  2  0  0  0  0
 22 17  1  0  0  0  0
 22 41  1  0  0  0  0
 23 14  1  0  0  0  0
 23 42  1  0  0  0  0
 24 23  2  0  0  0  0
 24 11  1  0  0  0  0
 24 43  1  0  0  0  0
 25  8  2  0  0  0  0
 25  3  1  0  0  0  0
 25 44  1  0  0  0  0
M  END
>  <MOL Chiral Flag>
0

>  <energy>
-67.90513697012247

$$$$
