>460.sdf
 OpenBabel10062214093D

 60 63  0  0  0  0  0  0  0  0999 V2000
    5.1039   -3.6811   -2.5222 C   0  0  0  0  0  0  0  0  0  0  0  0
    5.1919   -2.1615   -2.4064 C   0  0  0  0  0  0  0  0  0  0  0  0
    3.9457   -1.5486   -1.8100 C   0  0  0  0  0  0  0  0  0  0  0  0
    4.0213   -0.7832   -0.6354 C   0  0  0  0  0  0  0  0  0  0  0  0
    2.8781   -0.1621   -0.1185 C   0  0  0  0  0  0  0  0  0  0  0  0
    1.6341   -0.2978   -0.7645 C   0  0  0  0  0  0  0  0  0  0  0  0
    1.5617   -1.0971   -1.9217 C   0  0  0  0  0  0  0  0  0  0  0  0
    2.7045   -1.7082   -2.4422 C   0  0  0  0  0  0  0  0  0  0  0  0
    0.4670    0.4254   -0.2791 N   0  0  0  0  0  0  0  0  0  0  0  0
   -0.4329    1.0891   -1.0653 C   0  0  0  0  0  0  0  0  0  0  0  0
   -0.3959    1.2369   -2.5706 C   0  0  0  0  0  0  0  0  0  0  0  0
   -1.3622    1.7408   -0.2683 C   0  0  0  0  0  0  0  0  0  0  0  0
   -2.5005    2.6145   -0.7348 C   0  0  0  0  0  0  0  0  0  0  0  0
   -3.5485    1.8314   -1.4480 N   0  3  0  0  0  0  0  0  0  0  0  0
   -4.6103    1.4182   -0.4995 C   0  0  0  0  0  0  0  0  0  0  0  0
   -5.6578    0.5148   -1.1583 C   0  0  0  0  0  0  0  0  0  0  0  0
   -6.5672    1.3984   -2.4639 S   0  0  0  0  0  0  0  0  0  0  0  0
   -5.0760    1.8102   -3.4181 C   0  0  0  0  0  0  0  0  0  0  0  0
   -4.0934    2.6234   -2.5726 C   0  0  0  0  0  0  0  0  0  0  0  0
   -1.0178    1.5000    1.0359 C   0  0  0  0  0  0  0  0  0  0  0  0
    0.1028    0.6792    1.0153 C   0  0  0  0  0  0  0  0  0  0  0  0
    0.7172    0.1515    2.2713 C   0  0  0  0  0  0  0  0  0  0  0  0
    1.3324   -1.1154    2.3231 C   0  0  0  0  0  0  0  0  0  0  0  0
    1.8337   -1.6096    3.5335 C   0  0  0  0  0  0  0  0  0  0  0  0
    1.7340   -0.8460    4.7010 C   0  0  0  0  0  0  0  0  0  0  0  0
    2.3424   -1.4917    6.2593 S   0  0  0  0  0  0  0  0  0  0  0  0
    0.6732   -1.9198    6.8550 C   0  0  0  0  0  0  0  0  0  0  0  0
    1.1373    0.4149    4.6578 C   0  0  0  0  0  0  0  0  0  0  0  0
    0.6223    0.9056    3.4585 C   0  0  0  0  0  0  0  0  0  0  0  0
    6.0451   -4.0692   -2.9667 H   0  0  0  0  0  0  0  0  0  0  0  0
    4.2643   -3.9808   -3.1835 H   0  0  0  0  0  0  0  0  0  0  0  0
    4.9646   -4.1372   -1.5202 H   0  0  0  0  0  0  0  0  0  0  0  0
    5.3496   -1.7320   -3.4197 H   0  0  0  0  0  0  0  0  0  0  0  0
    6.0824   -1.9101   -1.7900 H   0  0  0  0  0  0  0  0  0  0  0  0
    4.9707   -0.6435   -0.1337 H   0  0  0  0  0  0  0  0  0  0  0  0
    2.9741    0.4560    0.7634 H   0  0  0  0  0  0  0  0  0  0  0  0
    0.6197   -1.2456   -2.4313 H   0  0  0  0  0  0  0  0  0  0  0  0
    2.6222   -2.2939   -3.3488 H   0  0  0  0  0  0  0  0  0  0  0  0
    0.5133    0.8424   -3.0493 H   0  0  0  0  0  0  0  0  0  0  0  0
   -0.3981    2.3169   -2.8236 H   0  0  0  0  0  0  0  0  0  0  0  0
   -1.2783    0.7588   -3.0383 H   0  0  0  0  0  0  0  0  0  0  0  0
   -2.0371    3.3886   -1.3853 H   0  0  0  0  0  0  0  0  0  0  0  0
   -2.9416    3.1724    0.1232 H   0  0  0  0  0  0  0  0  0  0  0  0
   -3.1255    0.9663   -1.8558 H   0  0  0  0  0  0  0  0  0  0  0  0
   -5.1219    2.3107   -0.0705 H   0  0  0  0  0  0  0  0  0  0  0  0
   -4.1563    0.8468    0.3411 H   0  0  0  0  0  0  0  0  0  0  0  0
   -6.3984    0.2165   -0.3864 H   0  0  0  0  0  0  0  0  0  0  0  0
   -5.2020   -0.4122   -1.5657 H   0  0  0  0  0  0  0  0  0  0  0  0
   -5.3903    2.4276   -4.2856 H   0  0  0  0  0  0  0  0  0  0  0  0
   -4.6045    0.8863   -3.8186 H   0  0  0  0  0  0  0  0  0  0  0  0
   -4.5818    3.5537   -2.2050 H   0  0  0  0  0  0  0  0  0  0  0  0
   -3.2600    2.9149   -3.2522 H   0  0  0  0  0  0  0  0  0  0  0  0
   -1.5450    1.8687    1.9057 H   0  0  0  0  0  0  0  0  0  0  0  0
    1.3916   -1.7410    1.4445 H   0  0  0  0  0  0  0  0  0  0  0  0
    2.2854   -2.5930    3.5659 H   0  0  0  0  0  0  0  0  0  0  0  0
    0.7615   -2.3842    7.8580 H   0  0  0  0  0  0  0  0  0  0  0  0
    0.1962   -2.6584    6.1771 H   0  0  0  0  0  0  0  0  0  0  0  0
    0.0509   -1.0060    6.9616 H   0  0  0  0  0  0  0  0  0  0  0  0
    1.0570    1.0103    5.5587 H   0  0  0  0  0  0  0  0  0  0  0  0
    0.1555    1.8816    3.4588 H   0  0  0  0  0  0  0  0  0  0  0  0
  1 30  1  0  0  0  0
  1 31  1  0  0  0  0
  1 32  1  0  0  0  0
  2  1  1  0  0  0  0
  2 33  1  0  0  0  0
  2 34  1  0  0  0  0
  3  2  1  0  0  0  0
  4  3  2  0  0  0  0
  4 35  1  0  0  0  0
  5  4  1  0  0  0  0
  5 36  1  0  0  0  0
  6  5  2  0  0  0  0
  7  6  1  0  0  0  0
  7 37  1  0  0  0  0
  8  7  2  0  0  0  0
  8  3  1  0  0  0  0
  8 38  1  0  0  0  0
  9  6  1  0  0  0  0
 10  9  1  0  0  0  0
 11 10  1  0  0  0  0
 11 39  1  0  0  0  0
 11 40  1  0  0  0  0
 11 41  1  0  0  0  0
 12 10  2  0  0  0  0
 13 12  1  0  0  0  0
 13 42  1  0  0  0  0
 13 43  1  0  0  0  0
 14 13  1  0  0  0  0
 14 44  1  0  0  0  0
 15 14  1  0  0  0  0
 15 45  1  0  0  0  0
 15 46  1  0  0  0  0
 16 15  1  0  0  0  0
 16 47  1  0  0  0  0
 16 48  1  0  0  0  0
 17 16  1  0  0  0  0
 18 17  1  0  0  0  0
 18 49  1  0  0  0  0
 18 50  1  0  0  0  0
 19 18  1  0  0  0  0
 19 14  1  0  0  0  0
 19 51  1  0  0  0  0
 19 52  1  0  0  0  0
 20 12  1  0  0  0  0
 20 53  1  0  0  0  0
 21 20  2  0  0  0  0
 21  9  1  0  0  0  0
 22 21  1  0  0  0  0
 23 22  2  0  0  0  0
 23 54  1  0  0  0  0
 24 23  1  0  0  0  0
 24 55  1  0  0  0  0
 25 24  2  0  0  0  0
 26 25  1  0  0  0  0
 27 26  1  0  0  0  0
 27 56  1  0  0  0  0
 27 57  1  0  0  0  0
 27 58  1  0  0  0  0
 28 25  1  0  0  0  0
 28 59  1  0  0  0  0
 29 28  2  0  0  0  0
 29 22  1  0  0  0  0
 29 60  1  0  0  0  0
M  CHG  1  14   1
M  END
>  <MOL Chiral Flag>
0

>  <energy>
135.05009825729724

$$$$
