>461.sdf
 OpenBabel10062214103D

108112  0  0  0  0  0  0  0  0999 V2000
   -4.8054    3.5607   -0.4019 C   0  0  0  0  0  0  0  0  0  0  0  0
   -4.7387    2.1543    0.1834 C   0  0  0  0  0  0  0  0  0  0  0  0
   -5.8907    1.1819   -0.2237 C   0  0  2  0  0  0  0  0  0  0  0  0
   -5.7655   -0.1211    0.5930 C   0  0  0  0  0  0  0  0  0  0  0  0
   -6.1805    0.8435   -1.7393 C   0  0  1  0  0  0  0  0  0  0  0  0
   -6.6723    2.0138   -2.4847 N   0  3  0  0  0  0  0  0  0  0  0  0
   -5.1549    0.0946   -2.5994 C   0  0  0  0  0  0  0  0  0  0  0  0
   -5.5366   -0.3165   -3.6861 O   0  0  0  0  0  0  0  0  0  0  0  0
   -3.8683   -0.1463   -2.2047 N   0  0  0  0  0  0  0  0  0  0  0  0
   -2.9127   -0.8841   -3.0392 C   0  0  1  0  0  0  0  0  0  0  0  0
   -2.2383    0.0070   -4.1390 C   0  0  1  0  0  0  0  0  0  0  0  0
   -3.2405    0.5284   -5.1820 C   0  0  0  0  0  0  0  0  0  0  0  0
   -1.4153    1.1614   -3.5081 C   0  0  0  0  0  0  0  0  0  0  0  0
   -0.5682    1.9302   -4.5249 C   0  0  0  0  0  0  0  0  0  0  0  0
   -1.8338   -1.5497   -2.1967 C   0  0  0  0  0  0  0  0  0  0  0  0
   -0.9969   -2.2375   -2.7623 O   0  0  0  0  0  0  0  0  0  0  0  0
   -1.7820   -1.3446   -0.8443 O   0  0  0  0  0  0  0  0  0  0  0  0
   -1.1229   -2.0377    0.1807 C   0  0  1  0  0  0  0  0  0  0  0  0
   -1.8350   -3.3114    0.5090 C   0  0  0  0  0  0  0  0  0  0  0  0
   -1.2116   -4.2548   -0.4965 C   0  0  1  0  0  0  0  0  0  0  0  0
    0.1862   -3.9681   -0.4492 O   0  0  0  0  0  0  0  0  0  0  0  0
    0.2896   -2.5557   -0.1820 C   0  0  2  0  0  0  0  0  0  0  0  0
    1.3528   -2.2503    0.9099 C   0  0  0  0  0  0  0  0  0  0  0  0
    2.6016   -2.1567    0.3120 O   0  0  0  0  0  0  0  0  0  0  0  0
    3.7792   -1.8576    0.9367 C   0  0  0  0  0  0  0  0  0  0  0  0
    3.9524   -2.1640    2.1069 O   0  0  0  0  0  0  0  0  0  0  0  0
    4.9427   -1.4078    0.0725 C   0  0  0  0  0  0  0  0  0  0  0  0
    6.0219   -0.3525    0.5687 C   0  0  0  0  0  0  0  0  0  0  0  0
    7.0928   -0.1052   -0.5430 C   0  0  0  0  0  0  0  0  0  0  0  0
    7.0312   -0.6893   -1.8350 C   0  0  0  0  0  0  0  0  0  0  0  0
    8.0293   -0.4358   -2.7812 C   0  0  0  0  0  0  0  0  0  0  0  0
    9.1052    0.3932   -2.4690 C   0  0  0  0  0  0  0  0  0  0  0  0
    9.1919    0.9750   -1.2068 C   0  0  0  0  0  0  0  0  0  0  0  0
    8.2023    0.7311   -0.2521 C   0  0  0  0  0  0  0  0  0  0  0  0
    6.8626   -0.9294    1.7429 C   0  0  0  0  0  0  0  0  0  0  0  0
    7.0802   -0.2224    2.9544 C   0  0  0  0  0  0  0  0  0  0  0  0
    7.9117   -0.7463    3.9487 C   0  0  0  0  0  0  0  0  0  0  0  0
    8.5452   -1.9729    3.7625 C   0  0  0  0  0  0  0  0  0  0  0  0
    8.3542   -2.6814    2.5786 C   0  0  0  0  0  0  0  0  0  0  0  0
    7.5281   -2.1676    1.5760 C   0  0  0  0  0  0  0  0  0  0  0  0
    5.3036    0.9908    0.9325 C   0  0  0  0  0  0  0  0  0  0  0  0
    4.4161    1.0525    2.0344 C   0  0  0  0  0  0  0  0  0  0  0  0
    3.8040    2.2541    2.4039 C   0  0  0  0  0  0  0  0  0  0  0  0
    4.0474    3.4186    1.6804 C   0  0  0  0  0  0  0  0  0  0  0  0
    4.8967    3.3856    0.5785 C   0  0  0  0  0  0  0  0  0  0  0  0
    5.5173    2.1914    0.2004 C   0  0  0  0  0  0  0  0  0  0  0  0
   -1.6070   -5.6547   -0.2064 N   0  0  0  0  0  0  0  0  0  0  0  0
   -0.7095   -6.5881    0.2372 C   0  0  0  0  0  0  0  0  0  0  0  0
   -1.1234   -7.9070    0.5015 C   0  0  0  0  0  0  0  0  0  0  0  0
   -0.1529   -8.9383    1.0060 C   0  0  0  0  0  0  0  0  0  0  0  0
   -2.4640   -8.2502    0.2900 C   0  0  0  0  0  0  0  0  0  0  0  0
   -2.8553   -9.3858    0.5057 O   0  0  0  0  0  0  0  0  0  0  0  0
   -3.3424   -7.3079   -0.1634 N   0  0  0  0  0  0  0  0  0  0  0  0
   -2.9315   -6.0259   -0.4096 C   0  0  0  0  0  0  0  0  0  0  0  0
   -3.7448   -5.2141   -0.8257 O   0  0  0  0  0  0  0  0  0  0  0  0
   -4.0365    4.1923    0.0918 H   0  0  0  0  0  0  0  0  0  0  0  0
   -5.8026    4.0155   -0.2247 H   0  0  0  0  0  0  0  0  0  0  0  0
   -4.5532    3.5612   -1.4756 H   0  0  0  0  0  0  0  0  0  0  0  0
   -4.8118    2.2817    1.2868 H   0  0  0  0  0  0  0  0  0  0  0  0
   -3.7289    1.7547   -0.0055 H   0  0  0  0  0  0  0  0  0  0  0  0
   -6.8236    1.6626    0.1503 H   0  0  0  0  0  0  0  0  0  0  0  0
   -4.8625   -0.7020    0.3239 H   0  0  0  0  0  0  0  0  0  0  0  0
   -6.6555   -0.7671    0.4323 H   0  0  0  0  0  0  0  0  0  0  0  0
   -5.7205    0.1059    1.6798 H   0  0  0  0  0  0  0  0  0  0  0  0
   -7.0471    0.1443   -1.6756 H   0  0  0  0  0  0  0  0  0  0  0  0
   -5.8936    2.6352   -2.7836 H   0  0  0  0  0  0  0  0  0  0  0  0
   -7.3725    2.5505   -1.9234 H   0  0  0  0  0  0  0  0  0  0  0  0
   -7.1529    1.6964   -3.3584 H   0  0  0  0  0  0  0  0  0  0  0  0
   -3.5730    0.1401   -1.2733 H   0  0  0  0  0  0  0  0  0  0  0  0
   -3.4447   -1.7349   -3.5217 H   0  0  0  0  0  0  0  0  0  0  0  0
   -1.5373   -0.6551   -4.6959 H   0  0  0  0  0  0  0  0  0  0  0  0
   -3.9322    1.2733   -4.7383 H   0  0  0  0  0  0  0  0  0  0  0  0
   -3.8154   -0.3182   -5.6135 H   0  0  0  0  0  0  0  0  0  0  0  0
   -2.7178    1.0146   -6.0293 H   0  0  0  0  0  0  0  0  0  0  0  0
   -0.7045    0.7414   -2.7650 H   0  0  0  0  0  0  0  0  0  0  0  0
   -2.0907    1.8671   -2.9775 H   0  0  0  0  0  0  0  0  0  0  0  0
    0.1235    1.2358   -5.0488 H   0  0  0  0  0  0  0  0  0  0  0  0
    0.0362    2.6971   -3.9970 H   0  0  0  0  0  0  0  0  0  0  0  0
   -1.1986    2.4545   -5.2702 H   0  0  0  0  0  0  0  0  0  0  0  0
   -1.1463   -1.3593    1.0604 H   0  0  0  0  0  0  0  0  0  0  0  0
   -2.9422   -3.2243    0.5059 H   0  0  0  0  0  0  0  0  0  0  0  0
   -1.5058   -3.6527    1.5172 H   0  0  0  0  0  0  0  0  0  0  0  0
   -1.5520   -4.0640   -1.5273 H   0  0  0  0  0  0  0  0  0  0  0  0
    0.6324   -1.9852   -1.0694 H   0  0  0  0  0  0  0  0  0  0  0  0
    1.3189   -2.9958    1.7339 H   0  0  0  0  0  0  0  0  0  0  0  0
    1.1481   -1.2432    1.3341 H   0  0  0  0  0  0  0  0  0  0  0  0
    4.4686   -0.9985   -0.8462 H   0  0  0  0  0  0  0  0  0  0  0  0
    5.4498   -2.3431   -0.2351 H   0  0  0  0  0  0  0  0  0  0  0  0
    6.2258   -1.3396   -2.1332 H   0  0  0  0  0  0  0  0  0  0  0  0
    7.9671   -0.8872   -3.7630 H   0  0  0  0  0  0  0  0  0  0  0  0
    9.8739    0.5837   -3.2069 H   0  0  0  0  0  0  0  0  0  0  0  0
   10.0291    1.6176   -0.9655 H   0  0  0  0  0  0  0  0  0  0  0  0
    8.2950    1.1970    0.7210 H   0  0  0  0  0  0  0  0  0  0  0  0
    6.6472    0.7471    3.1354 H   0  0  0  0  0  0  0  0  0  0  0  0
    8.0777   -0.1890    4.8620 H   0  0  0  0  0  0  0  0  0  0  0  0
    9.1961   -2.3685    4.5316 H   0  0  0  0  0  0  0  0  0  0  0  0
    8.8591   -3.6270    2.4294 H   0  0  0  0  0  0  0  0  0  0  0  0
    7.4258   -2.7308    0.6598 H   0  0  0  0  0  0  0  0  0  0  0  0
    4.2225    0.1815    2.6362 H   0  0  0  0  0  0  0  0  0  0  0  0
    3.1464    2.2833    3.2631 H   0  0  0  0  0  0  0  0  0  0  0  0
    3.5776    4.3488    1.9743 H   0  0  0  0  0  0  0  0  0  0  0  0
    5.0820    4.2917    0.0151 H   0  0  0  0  0  0  0  0  0  0  0  0
    6.1621    2.2270   -0.6631 H   0  0  0  0  0  0  0  0  0  0  0  0
    0.3252   -6.3149    0.3979 H   0  0  0  0  0  0  0  0  0  0  0  0
    0.8665   -8.5194    1.1283 H   0  0  0  0  0  0  0  0  0  0  0  0
   -0.1058   -9.7871    0.2907 H   0  0  0  0  0  0  0  0  0  0  0  0
   -0.4988   -9.3194    1.9911 H   0  0  0  0  0  0  0  0  0  0  0  0
   -4.3425   -7.5700   -0.3263 H   0  0  0  0  0  0  0  0  0  0  0  0
  1 56  1  0  0  0  0
  1 57  1  0  0  0  0
  1 58  1  0  0  0  0
  2  1  1  0  0  0  0
  2 59  1  0  0  0  0
  2 60  1  0  0  0  0
  3  2  1  0  0  0  0
  3 61  1  1  0  0  0
  4  3  1  0  0  0  0
  4 62  1  0  0  0  0
  4 63  1  0  0  0  0
  4 64  1  0  0  0  0
  5  3  1  0  0  0  0
  5 65  1  1  0  0  0
  6  5  1  0  0  0  0
  6 66  1  0  0  0  0
  6 67  1  0  0  0  0
  6 68  1  0  0  0  0
  7  5  1  0  0  0  0
  8  7  2  0  0  0  0
  9  7  1  0  0  0  0
  9 69  1  0  0  0  0
 10  9  1  0  0  0  0
 10 70  1  6  0  0  0
 11 10  1  0  0  0  0
 11 71  1  6  0  0  0
 12 11  1  0  0  0  0
 12 72  1  0  0  0  0
 12 73  1  0  0  0  0
 12 74  1  0  0  0  0
 13 11  1  0  0  0  0
 13 75  1  0  0  0  0
 13 76  1  0  0  0  0
 14 13  1  0  0  0  0
 14 77  1  0  0  0  0
 14 78  1  0  0  0  0
 14 79  1  0  0  0  0
 15 10  1  0  0  0  0
 16 15  2  0  0  0  0
 17 15  1  0  0  0  0
 18 17  1  0  0  0  0
 18 80  1  1  0  0  0
 19 18  1  0  0  0  0
 19 81  1  0  0  0  0
 19 82  1  0  0  0  0
 20 19  1  0  0  0  0
 20 83  1  6  0  0  0
 21 20  1  0  0  0  0
 22 21  1  0  0  0  0
 22 18  1  0  0  0  0
 22 84  1  6  0  0  0
 23 22  1  0  0  0  0
 23 85  1  0  0  0  0
 23 86  1  0  0  0  0
 24 23  1  0  0  0  0
 25 24  1  0  0  0  0
 26 25  2  0  0  0  0
 27 25  1  0  0  0  0
 27 87  1  0  0  0  0
 27 88  1  0  0  0  0
 28 27  1  0  0  0  0
 29 28  1  0  0  0  0
 30 29  2  0  0  0  0
 30 89  1  0  0  0  0
 31 30  1  0  0  0  0
 31 90  1  0  0  0  0
 32 31  2  0  0  0  0
 32 91  1  0  0  0  0
 33 32  1  0  0  0  0
 33 92  1  0  0  0  0
 34 33  2  0  0  0  0
 34 29  1  0  0  0  0
 34 93  1  0  0  0  0
 35 28  1  0  0  0  0
 36 35  2  0  0  0  0
 36 94  1  0  0  0  0
 37 36  1  0  0  0  0
 37 95  1  0  0  0  0
 38 37  2  0  0  0  0
 38 96  1  0  0  0  0
 39 38  1  0  0  0  0
 39 97  1  0  0  0  0
 40 39  2  0  0  0  0
 40 35  1  0  0  0  0
 40 98  1  0  0  0  0
 41 28  1  0  0  0  0
 42 41  2  0  0  0  0
 42 99  1  0  0  0  0
 43 42  1  0  0  0  0
 43100  1  0  0  0  0
 44 43  2  0  0  0  0
 44101  1  0  0  0  0
 45 44  1  0  0  0  0
 45102  1  0  0  0  0
 46 45  2  0  0  0  0
 46 41  1  0  0  0  0
 46103  1  0  0  0  0
 47 20  1  0  0  0  0
 48 47  1  0  0  0  0
 48104  1  0  0  0  0
 49 48  2  0  0  0  0
 50 49  1  0  0  0  0
 50105  1  0  0  0  0
 50106  1  0  0  0  0
 50107  1  0  0  0  0
 51 49  1  0  0  0  0
 52 51  2  0  0  0  0
 53 51  1  0  0  0  0
 53108  1  0  0  0  0
 54 53  1  0  0  0  0
 54 47  1  0  0  0  0
 55 54  2  0  0  0  0
M  CHG  1   6   1
M  END
>  <MOL Chiral Flag>
0

>  <energy>
99.717089476224075

$$$$
