>462.sdf
 OpenBabel10062214113D

 46 48  0  0  0  0  0  0  0  0999 V2000
    2.6722   -2.7247    0.7991 O   0  0  0  0  0  0  0  0  0  0  0  0
    1.9391   -1.9342    0.2217 C   0  0  0  0  0  0  0  0  0  0  0  0
    0.5202   -1.8274    0.7047 C   0  0  0  0  0  0  0  0  0  0  0  0
   -0.3357   -0.8520    0.0342 N   0  0  0  0  0  0  0  0  0  0  0  0
   -1.6885   -0.6505    0.6324 C   0  0  0  0  0  0  0  0  0  0  0  0
   -2.5463   -1.9435    0.5808 C   0  0  0  0  0  0  0  0  0  0  0  0
   -3.8637   -1.7616    1.3548 C   0  0  0  0  0  0  0  0  0  0  0  0
   -4.6722   -0.5879    0.7973 C   0  0  0  0  0  0  0  0  0  0  0  0
   -3.8429    0.6963    0.8629 C   0  0  0  0  0  0  0  0  0  0  0  0
   -2.5386    0.5273    0.0738 C   0  0  0  0  0  0  0  0  0  0  0  0
    0.1468   -0.1313   -1.0394 C   0  0  0  0  0  0  0  0  0  0  0  0
   -0.5608    0.6592   -1.6381 O   0  0  0  0  0  0  0  0  0  0  0  0
    1.5666   -0.2499   -1.5265 C   0  0  0  0  0  0  0  0  0  0  0  0
    2.4272   -1.1724   -0.8023 N   0  0  0  0  0  0  0  0  0  0  0  0
    3.8517   -1.2959   -1.1744 C   0  0  0  0  0  0  0  0  0  0  0  0
    4.0791   -2.5347   -2.0675 C   0  0  0  0  0  0  0  0  0  0  0  0
    5.5736   -2.7009   -2.3909 C   0  0  0  0  0  0  0  0  0  0  0  0
    6.1320   -1.4410   -3.0671 C   0  0  0  0  0  0  0  0  0  0  0  0
    5.9192   -0.2175   -2.1690 C   0  0  0  0  0  0  0  0  0  0  0  0
    4.4258   -0.0346   -1.8712 C   0  0  0  0  0  0  0  0  0  0  0  0
    0.0801   -2.8400    0.6113 H   0  0  0  0  0  0  0  0  0  0  0  0
    0.5783   -1.5598    1.7824 H   0  0  0  0  0  0  0  0  0  0  0  0
   -1.5159   -0.4013    1.7044 H   0  0  0  0  0  0  0  0  0  0  0  0
   -2.0242   -2.7969    1.0548 H   0  0  0  0  0  0  0  0  0  0  0  0
   -2.7604   -2.2062   -0.4783 H   0  0  0  0  0  0  0  0  0  0  0  0
   -3.6347   -1.5704    2.4273 H   0  0  0  0  0  0  0  0  0  0  0  0
   -4.4678   -2.6919    1.2930 H   0  0  0  0  0  0  0  0  0  0  0  0
   -5.6040   -0.4596    1.3892 H   0  0  0  0  0  0  0  0  0  0  0  0
   -4.9542   -0.7980   -0.2577 H   0  0  0  0  0  0  0  0  0  0  0  0
   -4.4293    1.5397    0.4386 H   0  0  0  0  0  0  0  0  0  0  0  0
   -3.6071    0.9377    1.9230 H   0  0  0  0  0  0  0  0  0  0  0  0
   -1.9726    1.4802    0.1612 H   0  0  0  0  0  0  0  0  0  0  0  0
   -2.8098    0.3405   -0.9891 H   0  0  0  0  0  0  0  0  0  0  0  0
    1.5414   -0.5550   -2.5960 H   0  0  0  0  0  0  0  0  0  0  0  0
    1.9862    0.7747   -1.4535 H   0  0  0  0  0  0  0  0  0  0  0  0
    4.4497   -1.4014   -0.2396 H   0  0  0  0  0  0  0  0  0  0  0  0
    3.5060   -2.4165   -3.0138 H   0  0  0  0  0  0  0  0  0  0  0  0
    3.7195   -3.4534   -1.5577 H   0  0  0  0  0  0  0  0  0  0  0  0
    5.7180   -3.5766   -3.0593 H   0  0  0  0  0  0  0  0  0  0  0  0
    6.1335   -2.8885   -1.4482 H   0  0  0  0  0  0  0  0  0  0  0  0
    5.6175   -1.2797   -4.0398 H   0  0  0  0  0  0  0  0  0  0  0  0
    7.2177   -1.5722   -3.2646 H   0  0  0  0  0  0  0  0  0  0  0  0
    6.4754   -0.3537   -1.2147 H   0  0  0  0  0  0  0  0  0  0  0  0
    6.3138    0.6916   -2.6714 H   0  0  0  0  0  0  0  0  0  0  0  0
    3.8948    0.1601   -2.8286 H   0  0  0  0  0  0  0  0  0  0  0  0
    4.3054    0.8485   -1.2066 H   0  0  0  0  0  0  0  0  0  0  0  0
  2  1  2  0  0  0  0
  3  2  1  0  0  0  0
  3 21  1  0  0  0  0
  3 22  1  0  0  0  0
  4  3  1  0  0  0  0
  5  4  1  0  0  0  0
  5 23  1  0  0  0  0
  6  5  1  0  0  0  0
  6 24  1  0  0  0  0
  6 25  1  0  0  0  0
  7  6  1  0  0  0  0
  7 26  1  0  0  0  0
  7 27  1  0  0  0  0
  8  7  1  0  0  0  0
  8 28  1  0  0  0  0
  8 29  1  0  0  0  0
  9  8  1  0  0  0  0
  9 30  1  0  0  0  0
  9 31  1  0  0  0  0
 10  9  1  0  0  0  0
 10  5  1  0  0  0  0
 10 32  1  0  0  0  0
 10 33  1  0  0  0  0
 11  4  1  0  0  0  0
 12 11  2  0  0  0  0
 13 11  1  0  0  0  0
 13 34  1  0  0  0  0
 13 35  1  0  0  0  0
 14 13  1  0  0  0  0
 14  2  1  0  0  0  0
 15 14  1  0  0  0  0
 15 36  1  0  0  0  0
 16 15  1  0  0  0  0
 16 37  1  0  0  0  0
 16 38  1  0  0  0  0
 17 16  1  0  0  0  0
 17 39  1  0  0  0  0
 17 40  1  0  0  0  0
 18 17  1  0  0  0  0
 18 41  1  0  0  0  0
 18 42  1  0  0  0  0
 19 18  1  0  0  0  0
 19 43  1  0  0  0  0
 19 44  1  0  0  0  0
 20 19  1  0  0  0  0
 20 15  1  0  0  0  0
 20 45  1  0  0  0  0
 20 46  1  0  0  0  0
M  END
>  <MOL Chiral Flag>
0

>  <energy>
87.230372518458594

$$$$
