>463.sdf
 OpenBabel10062214113D

 34 36  0  0  0  0  0  0  0  0999 V2000
   -3.1972    2.0445    1.5864 Cl  0  0  0  0  0  0  0  0  0  0  0  0
   -3.9360    0.6524    0.7910 C   0  0  0  0  0  0  0  0  0  0  0  0
   -5.3341    0.5952    0.7676 C   0  0  0  0  0  0  0  0  0  0  0  0
   -5.9897   -0.4371    0.0999 C   0  0  0  0  0  0  0  0  0  0  0  0
   -5.2545   -1.4111   -0.5727 C   0  0  0  0  0  0  0  0  0  0  0  0
   -3.8582   -1.3694   -0.5662 C   0  0  0  0  0  0  0  0  0  0  0  0
   -3.1711   -0.3554    0.1331 C   0  0  0  0  0  0  0  0  0  0  0  0
   -1.7295   -0.3617    0.1722 N   0  0  0  0  0  0  0  0  0  0  0  0
   -0.9972   -0.5441   -1.0754 C   0  0  0  0  0  0  0  0  0  0  0  0
    0.5035   -0.4541   -0.9717 C   0  0  0  0  0  0  0  0  0  0  0  0
    1.1421   -0.5442   -2.0129 O   0  0  0  0  0  0  0  0  0  0  0  0
    1.1591   -0.3083    0.2253 N   0  0  0  0  0  0  0  0  0  0  0  0
    0.4184   -0.2434    1.4792 C   0  0  0  0  0  0  0  0  0  0  0  0
   -1.0746   -0.2478    1.3675 C   0  0  0  0  0  0  0  0  0  0  0  0
   -1.7103   -0.2005    2.4129 O   0  0  0  0  0  0  0  0  0  0  0  0
    2.5908   -0.0869    0.2545 C   0  0  0  0  0  0  0  0  0  0  0  0
    3.4677   -0.7239    1.1875 C   0  0  0  0  0  0  0  0  0  0  0  0
    2.9628   -1.9626    2.3304 Cl  0  0  0  0  0  0  0  0  0  0  0  0
    4.8339   -0.4097    1.1858 C   0  0  0  0  0  0  0  0  0  0  0  0
    5.3514    0.5233    0.2914 C   0  0  0  0  0  0  0  0  0  0  0  0
    4.5130    1.1487   -0.6240 C   0  0  0  0  0  0  0  0  0  0  0  0
    3.1517    0.8482   -0.6477 C   0  0  0  0  0  0  0  0  0  0  0  0
   -5.9154    1.3603    1.2672 H   0  0  0  0  0  0  0  0  0  0  0  0
   -7.0713   -0.4757    0.0957 H   0  0  0  0  0  0  0  0  0  0  0  0
   -5.7683   -2.2073   -1.0953 H   0  0  0  0  0  0  0  0  0  0  0  0
   -3.3178   -2.1502   -1.0813 H   0  0  0  0  0  0  0  0  0  0  0  0
   -1.2443   -1.5261   -1.5280 H   0  0  0  0  0  0  0  0  0  0  0  0
   -1.3157    0.2571   -1.7776 H   0  0  0  0  0  0  0  0  0  0  0  0
    0.6593   -1.0980    2.1249 H   0  0  0  0  0  0  0  0  0  0  0  0
    0.6954    0.6999    1.9979 H   0  0  0  0  0  0  0  0  0  0  0  0
    5.5016   -0.8967    1.8858 H   0  0  0  0  0  0  0  0  0  0  0  0
    6.4072    0.7607    0.3080 H   0  0  0  0  0  0  0  0  0  0  0  0
    4.9165    1.8781   -1.3143 H   0  0  0  0  0  0  0  0  0  0  0  0
    2.5237    1.3740   -1.3546 H   0  0  0  0  0  0  0  0  0  0  0  0
  2  1  1  0  0  0  0
  3  2  2  0  0  0  0
  3 23  1  0  0  0  0
  4  3  1  0  0  0  0
  4 24  1  0  0  0  0
  5  4  2  0  0  0  0
  5 25  1  0  0  0  0
  6  5  1  0  0  0  0
  6 26  1  0  0  0  0
  7  6  2  0  0  0  0
  7  2  1  0  0  0  0
  8  7  1  0  0  0  0
  9  8  1  0  0  0  0
  9 27  1  0  0  0  0
  9 28  1  0  0  0  0
 10  9  1  0  0  0  0
 11 10  2  0  0  0  0
 12 10  1  0  0  0  0
 13 12  1  0  0  0  0
 13 29  1  0  0  0  0
 13 30  1  0  0  0  0
 14 13  1  0  0  0  0
 14  8  1  0  0  0  0
 15 14  2  0  0  0  0
 16 12  1  0  0  0  0
 17 16  2  0  0  0  0
 18 17  1  0  0  0  0
 19 17  1  0  0  0  0
 19 31  1  0  0  0  0
 20 19  2  0  0  0  0
 20 32  1  0  0  0  0
 21 20  1  0  0  0  0
 21 33  1  0  0  0  0
 22 21  2  0  0  0  0
 22 16  1  0  0  0  0
 22 34  1  0  0  0  0
M  END
>  <MOL Chiral Flag>
0

>  <energy>
135.48174778554545

$$$$
