>466.sdf
 OpenBabel10062214143D

 49 50  0  0  0  0  0  0  0  0999 V2000
   -1.0185   -6.6012   -3.0066 C   0  0  0  0  0  0  0  0  0  0  0  0
   -2.0248   -5.9533   -2.0404 C   0  0  0  0  0  0  0  0  0  0  0  0
   -1.7304   -4.5191   -1.7645 N   0  3  0  0  0  0  0  0  0  0  0  0
   -2.9082   -3.8495   -1.1438 C   0  0  0  0  0  0  0  0  0  0  0  0
   -4.0788   -3.6330   -2.1149 C   0  0  0  0  0  0  0  0  0  0  0  0
   -0.5506   -4.3888   -0.8599 C   0  0  0  0  0  0  0  0  0  0  0  0
    0.1342   -3.0099   -0.9770 C   0  0  0  0  0  0  0  0  0  0  0  0
    1.3689   -2.9121   -0.0606 C   0  0  0  0  0  0  0  0  0  0  0  0
    2.2401   -1.6618   -0.3409 C   0  0  2  0  0  0  0  0  0  0  0  0
    3.5590   -1.7749    0.4371 C   0  0  0  0  0  0  0  0  0  0  0  0
    1.4679   -0.4120   -0.2178 N   0  0  0  0  0  0  0  0  0  0  0  0
    1.7832    0.8085    0.4973 C   0  0  0  0  0  0  0  0  0  0  0  0
    1.2974    2.0739    0.0206 C   0  0  0  0  0  0  0  0  0  0  0  0
    0.5145    2.2152   -1.1560 C   0  0  0  0  0  0  0  0  0  0  0  0
    0.0796    3.4746   -1.5765 C   0  0  0  0  0  0  0  0  0  0  0  0
    0.4132    4.6167   -0.8524 C   0  0  0  0  0  0  0  0  0  0  0  0
   -0.1354    6.1915   -1.3970 Cl  0  0  0  0  0  0  0  0  0  0  0  0
    1.1870    4.5074    0.3014 C   0  0  0  0  0  0  0  0  0  0  0  0
    1.6288    3.2544    0.7419 C   0  0  0  0  0  0  0  0  0  0  0  0
    2.3828    3.1828    1.8656 N   0  0  0  0  0  0  0  0  0  0  0  0
    2.8372    2.0036    2.3444 C   0  0  0  0  0  0  0  0  0  0  0  0
    2.5483    0.8118    1.6846 C   0  0  0  0  0  0  0  0  0  0  0  0
   -0.9999   -6.0445   -3.9680 H   0  0  0  0  0  0  0  0  0  0  0  0
   -1.3330   -7.6453   -3.2164 H   0  0  0  0  0  0  0  0  0  0  0  0
    0.0090   -6.6462   -2.5996 H   0  0  0  0  0  0  0  0  0  0  0  0
   -2.0778   -6.5350   -1.0930 H   0  0  0  0  0  0  0  0  0  0  0  0
   -2.9995   -6.0637   -2.5521 H   0  0  0  0  0  0  0  0  0  0  0  0
   -1.5197   -4.0475   -2.6767 H   0  0  0  0  0  0  0  0  0  0  0  0
   -2.6366   -2.8330   -0.7950 H   0  0  0  0  0  0  0  0  0  0  0  0
   -3.2599   -4.4202   -0.2546 H   0  0  0  0  0  0  0  0  0  0  0  0
   -4.5259   -4.5804   -2.4706 H   0  0  0  0  0  0  0  0  0  0  0  0
   -3.7464   -3.0336   -2.9885 H   0  0  0  0  0  0  0  0  0  0  0  0
   -4.8841   -3.0741   -1.5927 H   0  0  0  0  0  0  0  0  0  0  0  0
    0.2343   -5.1227   -1.1252 H   0  0  0  0  0  0  0  0  0  0  0  0
   -0.8388   -4.6019    0.1949 H   0  0  0  0  0  0  0  0  0  0  0  0
   -0.5698   -2.1960   -0.7214 H   0  0  0  0  0  0  0  0  0  0  0  0
    0.4596   -2.8841   -2.0329 H   0  0  0  0  0  0  0  0  0  0  0  0
    2.0044   -3.8053   -0.2535 H   0  0  0  0  0  0  0  0  0  0  0  0
    1.0488   -2.9376    1.0042 H   0  0  0  0  0  0  0  0  0  0  0  0
    2.5443   -1.7138   -1.4104 H   0  0  0  0  0  0  0  0  0  0  0  0
    3.3891   -1.9636    1.5150 H   0  0  0  0  0  0  0  0  0  0  0  0
    4.1167   -2.6679    0.0814 H   0  0  0  0  0  0  0  0  0  0  0  0
    4.2070   -0.8917    0.2561 H   0  0  0  0  0  0  0  0  0  0  0  0
    0.6757   -0.3696   -0.8622 H   0  0  0  0  0  0  0  0  0  0  0  0
    0.2279    1.3827   -1.7726 H   0  0  0  0  0  0  0  0  0  0  0  0
   -0.5184    3.5607   -2.4753 H   0  0  0  0  0  0  0  0  0  0  0  0
    1.4481    5.3994    0.8581 H   0  0  0  0  0  0  0  0  0  0  0  0
    3.4234    1.9880    3.2540 H   0  0  0  0  0  0  0  0  0  0  0  0
    2.9087   -0.0783    2.1418 H   0  0  0  0  0  0  0  0  0  0  0  0
  1 23  1  0  0  0  0
  1 24  1  0  0  0  0
  1 25  1  0  0  0  0
  2  1  1  0  0  0  0
  2 26  1  0  0  0  0
  2 27  1  0  0  0  0
  3  2  1  0  0  0  0
  3 28  1  0  0  0  0
  4  3  1  0  0  0  0
  4 29  1  0  0  0  0
  4 30  1  0  0  0  0
  5  4  1  0  0  0  0
  5 31  1  0  0  0  0
  5 32  1  0  0  0  0
  5 33  1  0  0  0  0
  6  3  1  0  0  0  0
  6 34  1  0  0  0  0
  6 35  1  0  0  0  0
  7  6  1  0  0  0  0
  7 36  1  0  0  0  0
  7 37  1  0  0  0  0
  8  7  1  0  0  0  0
  8 38  1  0  0  0  0
  8 39  1  0  0  0  0
  9  8  1  0  0  0  0
  9 40  1  6  0  0  0
 10  9  1  0  0  0  0
 10 41  1  0  0  0  0
 10 42  1  0  0  0  0
 10 43  1  0  0  0  0
 11  9  1  0  0  0  0
 11 44  1  0  0  0  0
 12 11  1  0  0  0  0
 13 12  2  0  0  0  0
 14 13  1  0  0  0  0
 14 45  1  0  0  0  0
 15 14  2  0  0  0  0
 15 46  1  0  0  0  0
 16 15  1  0  0  0  0
 17 16  1  0  0  0  0
 18 16  2  0  0  0  0
 18 47  1  0  0  0  0
 19 18  1  0  0  0  0
 19 13  1  0  0  0  0
 20 19  2  0  0  0  0
 21 20  1  0  0  0  0
 21 48  1  0  0  0  0
 22 21  2  0  0  0  0
 22 12  1  0  0  0  0
 22 49  1  0  0  0  0
M  CHG  1   3   1
M  END
>  <MOL Chiral Flag>
0

>  <energy>
43.852666053281844

$$$$
