>469.sdf
 OpenBabel10062214163D

 64 68  0  0  0  0  0  0  0  0999 V2000
   -2.6866   -1.9230    3.1801 C   0  0  0  0  0  0  0  0  0  0  0  0
   -2.6271   -2.5160    1.7938 C   0  0  0  0  0  0  0  0  0  0  0  0
   -2.4900   -3.8578    1.6881 C   0  0  0  0  0  0  0  0  0  0  0  0
   -2.6041   -4.6000    0.3829 C   0  0  0  0  0  0  0  0  0  0  0  0
   -3.2956   -3.7589   -0.6955 C   0  0  0  0  0  0  0  0  0  0  0  0
   -2.6555   -2.3676   -0.8167 C   0  0  0  0  0  0  0  0  0  0  0  0
   -3.3852   -1.6006   -1.9505 C   0  0  0  0  0  0  0  0  0  0  0  0
   -1.1613   -2.5104   -1.2239 C   0  0  0  0  0  0  0  0  0  0  0  0
   -2.8280   -1.6163    0.5643 C   0  0  2  0  0  0  0  0  0  0  0  0
   -1.9897   -0.3442    0.5170 C   0  0  0  0  0  0  0  0  0  0  0  0
   -0.9599    0.0206    1.3220 C   0  0  0  0  0  0  0  0  0  0  0  0
   -0.2730    1.3084    1.0355 C   0  0  0  0  0  0  0  0  0  0  0  0
   -0.4452    1.8831   -0.0838 N   0  0  0  0  0  0  0  0  0  0  0  0
    0.2211    3.0542   -0.1601 N   0  0  0  0  0  0  0  0  0  0  0  0
    0.7370    3.4343    1.1387 C   0  0  1  0  0  0  0  0  0  0  0  0
    0.7404    2.0545    1.8917 C   0  0  0  0  0  0  0  0  0  0  0  0
    1.9927    4.2805    1.0768 C   0  0  0  0  0  0  0  0  0  0  0  0
    1.9417    5.6017    1.5493 C   0  0  0  0  0  0  0  0  0  0  0  0
    2.9916    6.4816    1.3023 C   0  0  0  0  0  0  0  0  0  0  0  0
    4.1288    6.0585    0.5973 C   0  0  0  0  0  0  0  0  0  0  0  0
    4.2200    4.7076    0.1972 C   0  0  0  0  0  0  0  0  0  0  0  0
    3.1544    3.8253    0.4323 C   0  0  0  0  0  0  0  0  0  0  0  0
    5.1372    7.0244    0.2310 N   0  0  0  0  0  0  0  0  0  0  0  0
    6.2978    6.8231   -0.4222 C   0  0  0  0  0  0  0  0  0  0  0  0
    6.9238    7.9939   -0.6525 N   0  0  0  0  0  0  0  0  0  0  0  0
    6.0920    8.9102   -0.1135 C   0  0  0  0  0  0  0  0  0  0  0  0
    5.0066    8.3276    0.4257 N   0  0  0  0  0  0  0  0  0  0  0  0
    0.3916    3.7170   -1.4185 C   0  0  0  0  0  0  0  0  0  0  0  0
    0.6307    5.1011   -1.5094 C   0  0  0  0  0  0  0  0  0  0  0  0
    0.8048    5.7083   -2.7556 C   0  0  0  0  0  0  0  0  0  0  0  0
    0.7458    4.9457   -3.9232 C   0  0  0  0  0  0  0  0  0  0  0  0
    0.5005    3.5746   -3.8487 C   0  0  0  0  0  0  0  0  0  0  0  0
    0.3160    2.9637   -2.6071 C   0  0  0  0  0  0  0  0  0  0  0  0
   -2.8722   -0.8295    3.1495 H   0  0  0  0  0  0  0  0  0  0  0  0
   -1.7400   -2.1203    3.7247 H   0  0  0  0  0  0  0  0  0  0  0  0
   -3.5275   -2.3847    3.7416 H   0  0  0  0  0  0  0  0  0  0  0  0
   -2.3366   -4.4504    2.5859 H   0  0  0  0  0  0  0  0  0  0  0  0
   -1.5964   -4.9510    0.0790 H   0  0  0  0  0  0  0  0  0  0  0  0
   -3.2355   -5.5023    0.5287 H   0  0  0  0  0  0  0  0  0  0  0  0
   -4.3660   -3.6275   -0.4159 H   0  0  0  0  0  0  0  0  0  0  0  0
   -3.2641   -4.3110   -1.6610 H   0  0  0  0  0  0  0  0  0  0  0  0
   -4.4634   -1.4754   -1.7109 H   0  0  0  0  0  0  0  0  0  0  0  0
   -2.9539   -0.5950   -2.1277 H   0  0  0  0  0  0  0  0  0  0  0  0
   -3.3092   -2.1544   -2.9109 H   0  0  0  0  0  0  0  0  0  0  0  0
   -0.6981   -1.5178   -1.4105 H   0  0  0  0  0  0  0  0  0  0  0  0
   -1.0672   -3.0942   -2.1645 H   0  0  0  0  0  0  0  0  0  0  0  0
   -0.5608   -3.0035   -0.4334 H   0  0  0  0  0  0  0  0  0  0  0  0
   -3.8870   -1.2900    0.6673 H   0  0  0  0  0  0  0  0  0  0  0  0
   -2.2607    0.3345   -0.2816 H   0  0  0  0  0  0  0  0  0  0  0  0
   -0.6389   -0.5877    2.1579 H   0  0  0  0  0  0  0  0  0  0  0  0
   -0.0849    4.0180    1.6118 H   0  0  0  0  0  0  0  0  0  0  0  0
    0.4608    2.1889    2.9583 H   0  0  0  0  0  0  0  0  0  0  0  0
    1.7027    1.5060    1.7942 H   0  0  0  0  0  0  0  0  0  0  0  0
    1.0518    5.9748    2.0405 H   0  0  0  0  0  0  0  0  0  0  0  0
    2.8937    7.5116    1.6203 H   0  0  0  0  0  0  0  0  0  0  0  0
    5.0798    4.3476   -0.3484 H   0  0  0  0  0  0  0  0  0  0  0  0
    3.2096    2.8114    0.0561 H   0  0  0  0  0  0  0  0  0  0  0  0
    6.6816    5.8651   -0.7428 H   0  0  0  0  0  0  0  0  0  0  0  0
    6.2650    9.9786   -0.1293 H   0  0  0  0  0  0  0  0  0  0  0  0
    0.6596    5.7201   -0.6322 H   0  0  0  0  0  0  0  0  0  0  0  0
    0.9833    6.7737   -2.8147 H   0  0  0  0  0  0  0  0  0  0  0  0
    0.8855    5.4182   -4.8861 H   0  0  0  0  0  0  0  0  0  0  0  0
    0.4557    2.9820   -4.7532 H   0  0  0  0  0  0  0  0  0  0  0  0
    0.1370    1.8960   -2.5702 H   0  0  0  0  0  0  0  0  0  0  0  0
  1 34  1  0  0  0  0
  1 35  1  0  0  0  0
  1 36  1  0  0  0  0
  2  1  1  0  0  0  0
  3  2  2  0  0  0  0
  3 37  1  0  0  0  0
  4  3  1  0  0  0  0
  4 38  1  0  0  0  0
  4 39  1  0  0  0  0
  5  4  1  0  0  0  0
  5 40  1  0  0  0  0
  5 41  1  0  0  0  0
  6  5  1  0  0  0  0
  7  6  1  0  0  0  0
  7 42  1  0  0  0  0
  7 43  1  0  0  0  0
  7 44  1  0  0  0  0
  8  6  1  0  0  0  0
  8 45  1  0  0  0  0
  8 46  1  0  0  0  0
  8 47  1  0  0  0  0
  9  6  1  0  0  0  0
  9  2  1  0  0  0  0
  9 48  1  1  0  0  0
 10  9  1  0  0  0  0
 10 49  1  0  0  0  0
 11 10  2  0  0  0  0
 11 50  1  0  0  0  0
 12 11  1  0  0  0  0
 13 12  2  0  0  0  0
 14 13  1  0  0  0  0
 15 14  1  0  0  0  0
 15 51  1  1  0  0  0
 16 15  1  0  0  0  0
 16 12  1  0  0  0  0
 16 52  1  0  0  0  0
 16 53  1  0  0  0  0
 17 15  1  0  0  0  0
 18 17  2  0  0  0  0
 18 54  1  0  0  0  0
 19 18  1  0  0  0  0
 19 55  1  0  0  0  0
 20 19  2  0  0  0  0
 21 20  1  0  0  0  0
 21 56  1  0  0  0  0
 22 21  2  0  0  0  0
 22 17  1  0  0  0  0
 22 57  1  0  0  0  0
 23 20  1  0  0  0  0
 24 23  1  0  0  0  0
 24 58  1  0  0  0  0
 25 24  2  0  0  0  0
 26 25  1  0  0  0  0
 26 59  1  0  0  0  0
 27 26  2  0  0  0  0
 27 23  1  0  0  0  0
 28 14  1  0  0  0  0
 29 28  2  0  0  0  0
 29 60  1  0  0  0  0
 30 29  1  0  0  0  0
 30 61  1  0  0  0  0
 31 30  2  0  0  0  0
 31 62  1  0  0  0  0
 32 31  1  0  0  0  0
 32 63  1  0  0  0  0
 33 32  2  0  0  0  0
 33 28  1  0  0  0  0
 33 64  1  0  0  0  0
M  END
>  <MOL Chiral Flag>
0

>  <energy>
152.06855828377905

$$$$
