>47.sdf
 OpenBabel10052218093D

 34 36  0  0  0  0  0  0  0  0999 V2000
   -5.4592    0.5960   -0.3170 C   0  0  0  0  0  0  0  0  0  0  0  0
   -4.3297   -0.3776   -0.3473 C   0  0  0  0  0  0  0  0  0  0  0  0
   -4.4875   -1.7143   -0.3901 N   0  0  0  0  0  0  0  0  0  0  0  0
   -3.2992   -2.2463   -0.3575 O   0  0  0  0  0  0  0  0  0  0  0  0
   -2.3718   -1.3161   -0.2973 C   0  0  0  0  0  0  0  0  0  0  0  0
   -2.9851   -0.0786   -0.2980 C   0  0  0  0  0  0  0  0  0  0  0  0
   -0.9814   -1.6073   -0.1570 N   0  0  0  0  0  0  0  0  0  0  0  0
   -0.4788   -2.9574   -0.0740 C   0  0  0  0  0  0  0  0  0  0  0  0
    1.0376   -2.7573    0.2072 C   0  0  0  0  0  0  0  0  0  0  0  0
    1.1959   -1.3190    0.2480 N   0  0  0  0  0  0  0  0  0  0  0  0
    2.5029   -0.7229    0.5330 C   0  0  0  0  0  0  0  0  0  0  0  0
    2.6670    0.7696    0.3157 C   0  0  0  0  0  0  0  0  0  0  0  0
    3.5485    1.2154   -0.6860 C   0  0  0  0  0  0  0  0  0  0  0  0
    3.7524    2.5784   -0.8988 C   0  0  0  0  0  0  0  0  0  0  0  0
    3.0817    3.5177   -0.1139 C   0  0  0  0  0  0  0  0  0  0  0  0
    3.3682    5.3818   -0.4155 Br  0  0  0  0  0  0  0  0  0  0  0  0
    2.2098    3.0906    0.8940 C   0  0  0  0  0  0  0  0  0  0  0  0
    2.0070    1.7214    1.1169 C   0  0  0  0  0  0  0  0  0  0  0  0
    0.0139   -0.7224    0.0091 C   0  0  0  0  0  0  0  0  0  0  0  0
   -0.1505    0.4834   -0.0156 O   0  0  0  0  0  0  0  0  0  0  0  0
   -6.0722    0.4124    0.5910 H   0  0  0  0  0  0  0  0  0  0  0  0
   -5.0757    1.6374   -0.2831 H   0  0  0  0  0  0  0  0  0  0  0  0
   -6.0927    0.4673   -1.2180 H   0  0  0  0  0  0  0  0  0  0  0  0
   -2.5427    0.9050   -0.2371 H   0  0  0  0  0  0  0  0  0  0  0  0
   -0.9624   -3.4897    0.7726 H   0  0  0  0  0  0  0  0  0  0  0  0
   -0.6548   -3.4967   -1.0311 H   0  0  0  0  0  0  0  0  0  0  0  0
    1.3267   -3.2110    1.1787 H   0  0  0  0  0  0  0  0  0  0  0  0
    1.6540   -3.1758   -0.6191 H   0  0  0  0  0  0  0  0  0  0  0  0
    2.7935   -0.9748    1.5766 H   0  0  0  0  0  0  0  0  0  0  0  0
    3.2328   -1.2400   -0.1253 H   0  0  0  0  0  0  0  0  0  0  0  0
    4.0831    0.5034   -1.3023 H   0  0  0  0  0  0  0  0  0  0  0  0
    4.4354    2.9021   -1.6737 H   0  0  0  0  0  0  0  0  0  0  0  0
    1.6946    3.8198    1.5060 H   0  0  0  0  0  0  0  0  0  0  0  0
    1.3387    1.4052    1.9083 H   0  0  0  0  0  0  0  0  0  0  0  0
  1 21  1  0  0  0  0
  1 22  1  0  0  0  0
  1 23  1  0  0  0  0
  2  1  1  0  0  0  0
  3  2  2  0  0  0  0
  4  3  1  0  0  0  0
  5  4  1  0  0  0  0
  6  5  2  0  0  0  0
  6  2  1  0  0  0  0
  6 24  1  0  0  0  0
  7  5  1  0  0  0  0
  8  7  1  0  0  0  0
  8 25  1  0  0  0  0
  8 26  1  0  0  0  0
  9  8  1  0  0  0  0
  9 27  1  0  0  0  0
  9 28  1  0  0  0  0
 10  9  1  0  0  0  0
 11 10  1  0  0  0  0
 11 29  1  0  0  0  0
 11 30  1  0  0  0  0
 12 11  1  0  0  0  0
 13 12  2  0  0  0  0
 13 31  1  0  0  0  0
 14 13  1  0  0  0  0
 14 32  1  0  0  0  0
 15 14  2  0  0  0  0
 16 15  1  0  0  0  0
 17 15  1  0  0  0  0
 17 33  1  0  0  0  0
 18 17  2  0  0  0  0
 18 12  1  0  0  0  0
 18 34  1  0  0  0  0
 19 10  1  0  0  0  0
 19  7  1  0  0  0  0
 20 19  2  0  0  0  0
M  END
>  <MOL Chiral Flag>
0

>  <energy>
-9.6989543151605986

$$$$
