>470.sdf
 OpenBabel10062214173D

 58 62  0  0  0  0  0  0  0  0999 V2000
   -3.2466   -1.4011   -4.5982 C   0  0  0  0  0  0  0  0  0  0  0  0
   -3.9952   -2.1899   -3.5107 C   0  0  0  0  0  0  0  0  0  0  0  0
   -4.7654   -1.3780   -2.4002 C   0  0  1  0  0  0  0  0  0  0  0  0
   -5.4792   -0.3082   -2.9749 O   0  0  0  0  0  0  0  0  0  0  0  0
   -5.7703   -2.3394   -1.7690 C   0  0  0  0  0  0  0  0  0  0  0  0
   -6.6203   -2.8552   -2.4796 O   0  0  0  0  0  0  0  0  0  0  0  0
   -5.7649   -2.6551   -0.4545 O   0  0  0  0  0  0  0  0  0  0  0  0
   -4.9164   -2.1708    0.5138 C   0  0  0  0  0  0  0  0  0  0  0  0
   -3.8984   -1.1800    0.0238 C   0  0  0  0  0  0  0  0  0  0  0  0
   -3.8184   -0.7986   -1.3461 C   0  0  0  0  0  0  0  0  0  0  0  0
   -2.8200    0.1191   -1.7286 C   0  0  0  0  0  0  0  0  0  0  0  0
   -1.9081    0.5554   -0.7821 C   0  0  0  0  0  0  0  0  0  0  0  0
   -1.9948    0.1997    0.5063 N   0  0  0  0  0  0  0  0  0  0  0  0
   -0.8743    0.7555    1.2867 C   0  0  0  0  0  0  0  0  0  0  0  0
   -0.0563    1.4048    0.1847 C   0  0  0  0  0  0  0  0  0  0  0  0
    1.2473    1.9165    0.2369 C   0  0  0  0  0  0  0  0  0  0  0  0
    1.9370    1.8630    1.5554 C   0  0  0  0  0  0  0  0  0  0  0  0
    3.2123    1.7940    1.6392 N   0  0  0  0  0  0  0  0  0  0  0  0
    3.7907    1.5446    2.7970 O   0  0  0  0  0  0  0  0  0  0  0  0
    4.5158    0.3780    3.0194 C   0  0  0  0  0  0  0  0  0  0  0  0
    3.8592   -0.3681    4.1899 C   0  0  0  0  0  0  0  0  0  0  0  0
    5.9564    0.7564    3.3836 C   0  0  0  0  0  0  0  0  0  0  0  0
    4.5323   -0.5543    1.7800 C   0  0  0  0  0  0  0  0  0  0  0  0
    1.8475    2.3125   -1.0113 C   0  0  0  0  0  0  0  0  0  0  0  0
    3.1683    2.8094   -1.1228 C   0  0  0  0  0  0  0  0  0  0  0  0
    3.7073    3.1223   -2.3749 C   0  0  0  0  0  0  0  0  0  0  0  0
    2.9506    2.9619   -3.5339 C   0  0  0  0  0  0  0  0  0  0  0  0
    1.6414    2.4971   -3.4550 C   0  0  0  0  0  0  0  0  0  0  0  0
    1.0809    2.1735   -2.2171 C   0  0  0  0  0  0  0  0  0  0  0  0
   -0.1834    1.6739   -2.1812 N   0  0  0  0  0  0  0  0  0  0  0  0
   -0.7206    1.3053   -1.0022 C   0  0  0  0  0  0  0  0  0  0  0  0
   -2.9766   -0.6412    0.9559 C   0  0  0  0  0  0  0  0  0  0  0  0
   -3.0180   -0.9606    2.1315 O   0  0  0  0  0  0  0  0  0  0  0  0
   -2.3485   -0.8735   -4.2435 H   0  0  0  0  0  0  0  0  0  0  0  0
   -3.9365   -0.6927   -5.1065 H   0  0  0  0  0  0  0  0  0  0  0  0
   -2.8736   -2.1121   -5.3650 H   0  0  0  0  0  0  0  0  0  0  0  0
   -3.3067   -2.9238   -3.0363 H   0  0  0  0  0  0  0  0  0  0  0  0
   -4.7413   -2.7704   -4.0949 H   0  0  0  0  0  0  0  0  0  0  0  0
   -6.0389   -0.6656   -3.7139 H   0  0  0  0  0  0  0  0  0  0  0  0
   -4.3777   -3.0348    0.9608 H   0  0  0  0  0  0  0  0  0  0  0  0
   -5.5323   -1.6959    1.3053 H   0  0  0  0  0  0  0  0  0  0  0  0
   -2.7166    0.4612   -2.7382 H   0  0  0  0  0  0  0  0  0  0  0  0
   -1.2156    1.4773    2.0607 H   0  0  0  0  0  0  0  0  0  0  0  0
   -0.2961   -0.0743    1.7448 H   0  0  0  0  0  0  0  0  0  0  0  0
    1.3496    1.6764    2.4511 H   0  0  0  0  0  0  0  0  0  0  0  0
    4.4093   -1.3053    4.4229 H   0  0  0  0  0  0  0  0  0  0  0  0
    3.8449    0.2705    5.0988 H   0  0  0  0  0  0  0  0  0  0  0  0
    2.8087   -0.6301    3.9356 H   0  0  0  0  0  0  0  0  0  0  0  0
    6.4322    1.3057    2.5430 H   0  0  0  0  0  0  0  0  0  0  0  0
    5.9708    1.4095    4.2819 H   0  0  0  0  0  0  0  0  0  0  0  0
    6.5586   -0.1535    3.5973 H   0  0  0  0  0  0  0  0  0  0  0  0
    5.1075   -1.4816    1.9895 H   0  0  0  0  0  0  0  0  0  0  0  0
    5.0006   -0.0440    0.9106 H   0  0  0  0  0  0  0  0  0  0  0  0
    3.4978   -0.8486    1.4967 H   0  0  0  0  0  0  0  0  0  0  0  0
    3.8031    2.9595   -0.2698 H   0  0  0  0  0  0  0  0  0  0  0  0
    4.7241    3.4857   -2.4466 H   0  0  0  0  0  0  0  0  0  0  0  0
    3.3817    3.1953   -4.4987 H   0  0  0  0  0  0  0  0  0  0  0  0
    1.0636    2.3681   -4.3624 H   0  0  0  0  0  0  0  0  0  0  0  0
  1 34  1  0  0  0  0
  1 35  1  0  0  0  0
  1 36  1  0  0  0  0
  2  1  1  0  0  0  0
  2 37  1  0  0  0  0
  2 38  1  0  0  0  0
  3  2  1  6  0  0  0
  4  3  1  0  0  0  0
  4 39  1  0  0  0  0
  5  3  1  0  0  0  0
  6  5  2  0  0  0  0
  7  5  1  0  0  0  0
  8  7  1  0  0  0  0
  8 40  1  0  0  0  0
  8 41  1  0  0  0  0
  9  8  1  0  0  0  0
 10  9  2  0  0  0  0
 10  3  1  0  0  0  0
 11 10  1  0  0  0  0
 11 42  1  0  0  0  0
 12 11  2  0  0  0  0
 13 12  1  0  0  0  0
 14 13  1  0  0  0  0
 14 43  1  0  0  0  0
 14 44  1  0  0  0  0
 15 14  1  0  0  0  0
 16 15  2  0  0  0  0
 17 16  1  0  0  0  0
 17 45  1  0  0  0  0
 18 17  2  0  0  0  0
 19 18  1  0  0  0  0
 20 19  1  0  0  0  0
 21 20  1  0  0  0  0
 21 46  1  0  0  0  0
 21 47  1  0  0  0  0
 21 48  1  0  0  0  0
 22 20  1  0  0  0  0
 22 49  1  0  0  0  0
 22 50  1  0  0  0  0
 22 51  1  0  0  0  0
 23 20  1  0  0  0  0
 23 52  1  0  0  0  0
 23 53  1  0  0  0  0
 23 54  1  0  0  0  0
 24 16  1  0  0  0  0
 25 24  2  0  0  0  0
 25 55  1  0  0  0  0
 26 25  1  0  0  0  0
 26 56  1  0  0  0  0
 27 26  2  0  0  0  0
 27 57  1  0  0  0  0
 28 27  1  0  0  0  0
 28 58  1  0  0  0  0
 29 28  2  0  0  0  0
 29 24  1  0  0  0  0
 30 29  1  0  0  0  0
 31 30  2  0  0  0  0
 31 12  1  0  0  0  0
 31 15  1  0  0  0  0
 32 13  1  0  0  0  0
 32  9  1  0  0  0  0
 33 32  2  0  0  0  0
M  END
>  <MOL Chiral Flag>
0

>  <energy>
112.84376499171492

$$$$
