>471.sdf
 OpenBabel10062214173D

 36 38  0  0  0  0  0  0  0  0999 V2000
   -2.7055   -2.9180   -1.3600 C   0  0  0  0  0  0  0  0  0  0  0  0
   -2.7510   -1.4808   -0.9091 C   0  0  0  0  0  0  0  0  0  0  0  0
   -3.9798   -0.9318   -0.7354 N   0  0  0  0  0  0  0  0  0  0  0  0
   -4.1471    0.3510   -0.3496 C   0  0  0  0  0  0  0  0  0  0  0  0
   -5.4390    0.8715   -0.2135 C   0  0  0  0  0  0  0  0  0  0  0  0
   -5.6207    2.2085    0.1439 C   0  0  0  0  0  0  0  0  0  0  0  0
   -4.5120    3.0290    0.3684 C   0  0  0  0  0  0  0  0  0  0  0  0
   -3.2158    2.5115    0.2459 C   0  0  0  0  0  0  0  0  0  0  0  0
   -3.0250    1.1603   -0.1129 C   0  0  0  0  0  0  0  0  0  0  0  0
   -1.7443    0.5919   -0.2677 C   0  0  0  0  0  0  0  0  0  0  0  0
   -0.7543    1.2892   -0.1133 O   0  0  0  0  0  0  0  0  0  0  0  0
   -1.6130   -0.7381   -0.6590 N   0  0  0  0  0  0  0  0  0  0  0  0
   -0.3483   -1.3025   -0.9105 N   0  0  0  0  0  0  0  0  0  0  0  0
    0.7802   -1.2733   -0.0163 C   0  0  0  0  0  0  0  0  0  0  0  0
    0.6422   -0.7689    1.3288 S   0  0  0  0  0  0  0  0  0  0  0  0
    2.0250   -1.8146   -0.5082 N   0  0  0  0  0  0  0  0  0  0  0  0
    3.2502   -2.1398    0.1815 C   0  0  0  0  0  0  0  0  0  0  0  0
    3.3694   -2.2770    1.5873 C   0  0  0  0  0  0  0  0  0  0  0  0
    4.6009   -2.6210    2.1627 C   0  0  0  0  0  0  0  0  0  0  0  0
    5.7220   -2.8346    1.3603 C   0  0  0  0  0  0  0  0  0  0  0  0
    5.6182   -2.7155   -0.0228 C   0  0  0  0  0  0  0  0  0  0  0  0
    4.3958   -2.3783   -0.6063 C   0  0  0  0  0  0  0  0  0  0  0  0
   -3.1970   -2.9946   -2.3526 H   0  0  0  0  0  0  0  0  0  0  0  0
   -3.2698   -3.5406   -0.6355 H   0  0  0  0  0  0  0  0  0  0  0  0
   -1.6974   -3.3606   -1.4385 H   0  0  0  0  0  0  0  0  0  0  0  0
   -6.3020    0.2422   -0.3958 H   0  0  0  0  0  0  0  0  0  0  0  0
   -6.6218    2.6101    0.2390 H   0  0  0  0  0  0  0  0  0  0  0  0
   -4.6584    4.0678    0.6352 H   0  0  0  0  0  0  0  0  0  0  0  0
   -2.3708    3.1653    0.4213 H   0  0  0  0  0  0  0  0  0  0  0  0
   -0.2357   -1.8825   -1.7533 H   0  0  0  0  0  0  0  0  0  0  0  0
    2.0425   -1.9800   -1.5260 H   0  0  0  0  0  0  0  0  0  0  0  0
    2.5393   -2.1534    2.2553 H   0  0  0  0  0  0  0  0  0  0  0  0
    4.6845   -2.7295    3.2366 H   0  0  0  0  0  0  0  0  0  0  0  0
    6.6704   -3.1006    1.8099 H   0  0  0  0  0  0  0  0  0  0  0  0
    6.4857   -2.8875   -0.6476 H   0  0  0  0  0  0  0  0  0  0  0  0
    4.3390   -2.2954   -1.6846 H   0  0  0  0  0  0  0  0  0  0  0  0
  1 23  1  0  0  0  0
  1 24  1  0  0  0  0
  1 25  1  0  0  0  0
  2  1  1  0  0  0  0
  3  2  2  0  0  0  0
  4  3  1  0  0  0  0
  5  4  2  0  0  0  0
  5 26  1  0  0  0  0
  6  5  1  0  0  0  0
  6 27  1  0  0  0  0
  7  6  2  0  0  0  0
  7 28  1  0  0  0  0
  8  7  1  0  0  0  0
  8 29  1  0  0  0  0
  9  8  2  0  0  0  0
  9  4  1  0  0  0  0
 10  9  1  0  0  0  0
 11 10  2  0  0  0  0
 12 10  1  0  0  0  0
 12  2  1  0  0  0  0
 13 12  1  0  0  0  0
 13 30  1  0  0  0  0
 14 13  1  0  0  0  0
 15 14  2  0  0  0  0
 16 14  1  0  0  0  0
 16 31  1  0  0  0  0
 17 16  1  0  0  0  0
 18 17  2  0  0  0  0
 18 32  1  0  0  0  0
 19 18  1  0  0  0  0
 19 33  1  0  0  0  0
 20 19  2  0  0  0  0
 20 34  1  0  0  0  0
 21 20  1  0  0  0  0
 21 35  1  0  0  0  0
 22 21  2  0  0  0  0
 22 17  1  0  0  0  0
 22 36  1  0  0  0  0
M  END
>  <MOL Chiral Flag>
0

>  <energy>
36.792567760839653

$$$$
