>472.sdf
 OpenBabel10062214183D

 39 42  0  0  0  0  0  0  0  0999 V2000
   -1.9104   -2.6446   -1.4630 C   0  0  0  0  0  0  0  0  0  0  0  0
   -2.2038   -1.2204   -1.0647 C   0  0  0  0  0  0  0  0  0  0  0  0
   -3.3154   -0.6446   -1.5962 N   0  0  0  0  0  0  0  0  0  0  0  0
   -3.6810    0.6228   -1.2983 C   0  0  0  0  0  0  0  0  0  0  0  0
   -4.8221    1.1808   -1.8881 C   0  0  0  0  0  0  0  0  0  0  0  0
   -5.1881    2.4980   -1.5964 C   0  0  0  0  0  0  0  0  0  0  0  0
   -4.4178    3.2608   -0.7148 C   0  0  0  0  0  0  0  0  0  0  0  0
   -3.2786    2.7097   -0.1220 C   0  0  0  0  0  0  0  0  0  0  0  0
   -2.9051    1.3815   -0.4111 C   0  0  0  0  0  0  0  0  0  0  0  0
   -1.7588    0.7948    0.1455 C   0  0  0  0  0  0  0  0  0  0  0  0
   -1.0395    1.4663    0.8673 O   0  0  0  0  0  0  0  0  0  0  0  0
   -1.4151   -0.5158   -0.1774 N   0  0  0  0  0  0  0  0  0  0  0  0
   -0.2193   -1.0836    0.3042 N   0  0  0  0  0  0  0  0  0  0  0  0
    0.2273   -0.9291    1.5907 C   0  0  0  0  0  0  0  0  0  0  0  0
   -0.4907   -0.4183    2.4385 O   0  0  0  0  0  0  0  0  0  0  0  0
    1.6167   -1.3796    2.0051 C   0  0  1  0  0  0  0  0  0  0  0  0
    2.4082   -1.8838    0.8859 N   0  0  0  0  0  0  0  0  0  0  0  0
    3.4917   -1.0304    0.6104 C   0  0  0  0  0  0  0  0  0  0  0  0
    4.4199   -1.1576   -0.4215 C   0  0  0  0  0  0  0  0  0  0  0  0
    5.4184   -0.1733   -0.5406 C   0  0  0  0  0  0  0  0  0  0  0  0
    5.4649    0.9045    0.3720 C   0  0  0  0  0  0  0  0  0  0  0  0
    4.5136    0.9974    1.4039 C   0  0  0  0  0  0  0  0  0  0  0  0
    3.5379    0.0059    1.4878 C   0  0  0  0  0  0  0  0  0  0  0  0
    2.4289   -0.1609    2.4044 C   0  0  0  0  0  0  0  0  0  0  0  0
    2.1682    0.5893    3.3322 O   0  0  0  0  0  0  0  0  0  0  0  0
   -1.7492   -2.6927   -2.5601 H   0  0  0  0  0  0  0  0  0  0  0  0
   -2.7881   -3.2742   -1.2065 H   0  0  0  0  0  0  0  0  0  0  0  0
   -1.0391   -3.1019   -0.9611 H   0  0  0  0  0  0  0  0  0  0  0  0
   -5.4198    0.5975   -2.5773 H   0  0  0  0  0  0  0  0  0  0  0  0
   -6.0673    2.9296   -2.0566 H   0  0  0  0  0  0  0  0  0  0  0  0
   -4.7008    4.2816   -0.4928 H   0  0  0  0  0  0  0  0  0  0  0  0
   -2.6917    3.3177    0.5557 H   0  0  0  0  0  0  0  0  0  0  0  0
    0.3548   -1.6212   -0.3553 H   0  0  0  0  0  0  0  0  0  0  0  0
    1.5792   -2.1297    2.8241 H   0  0  0  0  0  0  0  0  0  0  0  0
    2.1907   -2.7365    0.3490 H   0  0  0  0  0  0  0  0  0  0  0  0
    4.3685   -1.9845   -1.1177 H   0  0  0  0  0  0  0  0  0  0  0  0
    6.1493   -0.2392   -1.3357 H   0  0  0  0  0  0  0  0  0  0  0  0
    6.2309    1.6627    0.2747 H   0  0  0  0  0  0  0  0  0  0  0  0
    4.5330    1.8209    2.1059 H   0  0  0  0  0  0  0  0  0  0  0  0
  1 26  1  0  0  0  0
  1 27  1  0  0  0  0
  1 28  1  0  0  0  0
  2  1  1  0  0  0  0
  3  2  2  0  0  0  0
  4  3  1  0  0  0  0
  5  4  2  0  0  0  0
  5 29  1  0  0  0  0
  6  5  1  0  0  0  0
  6 30  1  0  0  0  0
  7  6  2  0  0  0  0
  7 31  1  0  0  0  0
  8  7  1  0  0  0  0
  8 32  1  0  0  0  0
  9  8  2  0  0  0  0
  9  4  1  0  0  0  0
 10  9  1  0  0  0  0
 11 10  2  0  0  0  0
 12 10  1  0  0  0  0
 12  2  1  0  0  0  0
 13 12  1  0  0  0  0
 13 33  1  0  0  0  0
 14 13  1  0  0  0  0
 15 14  2  0  0  0  0
 16 14  1  0  0  0  0
 16 34  1  1  0  0  0
 17 16  1  0  0  0  0
 17 35  1  0  0  0  0
 18 17  1  0  0  0  0
 19 18  2  0  0  0  0
 19 36  1  0  0  0  0
 20 19  1  0  0  0  0
 20 37  1  0  0  0  0
 21 20  2  0  0  0  0
 21 38  1  0  0  0  0
 22 21  1  0  0  0  0
 22 39  1  0  0  0  0
 23 22  2  0  0  0  0
 23 18  1  0  0  0  0
 24 23  1  0  0  0  0
 24 16  1  0  0  0  0
 25 24  2  0  0  0  0
M  END
>  <MOL Chiral Flag>
0

>  <energy>
151.57955492120931

$$$$
