>473.sdf
 OpenBabel10062214183D

 40 43  0  0  0  0  0  0  0  0999 V2000
   -1.8993   -2.6465    1.0056 C   0  0  0  0  0  0  0  0  0  0  0  0
   -2.2173   -1.3025    0.4461 C   0  0  0  0  0  0  0  0  0  0  0  0
   -3.5270   -0.9363    0.5262 N   0  0  0  0  0  0  0  0  0  0  0  0
   -3.9758    0.2694    0.1194 C   0  0  0  0  0  0  0  0  0  0  0  0
   -5.3306    0.5979    0.2528 C   0  0  0  0  0  0  0  0  0  0  0  0
   -5.7873    1.8578   -0.1460 C   0  0  0  0  0  0  0  0  0  0  0  0
   -4.8932    2.7888   -0.6813 C   0  0  0  0  0  0  0  0  0  0  0  0
   -3.5413    2.4619   -0.8189 C   0  0  0  0  0  0  0  0  0  0  0  0
   -3.0771    1.1935   -0.4144 C   0  0  0  0  0  0  0  0  0  0  0  0
   -1.7277    0.8312   -0.5086 C   0  0  0  0  0  0  0  0  0  0  0  0
   -0.9246    1.6397   -0.9519 O   0  0  0  0  0  0  0  0  0  0  0  0
   -1.2820   -0.4136   -0.0827 N   0  0  0  0  0  0  0  0  0  0  0  0
    0.1224   -0.5547   -0.1191 N   0  0  0  0  0  0  0  0  0  0  0  0
    0.9932   -1.5184   -0.1199 C   0  0  0  0  0  0  0  0  0  0  0  0
    0.7855   -3.1570   -0.1494 S   0  0  0  0  0  0  0  0  0  0  0  0
    2.3694   -3.6076   -0.0372 C   0  0  0  0  0  0  0  0  0  0  0  0
    3.1038   -2.4151   -0.0001 C   0  0  0  0  0  0  0  0  0  0  0  0
    4.5228   -2.4271    0.0370 N   0  0  0  0  0  0  0  0  0  0  0  0
    2.3389   -1.2517   -0.0595 N   0  0  0  0  0  0  0  0  0  0  0  0
    2.8641    0.1025   -0.0430 C   0  0  0  0  0  0  0  0  0  0  0  0
    2.3442    1.0740   -0.9243 C   0  0  0  0  0  0  0  0  0  0  0  0
    2.8256    2.3840   -0.9045 C   0  0  0  0  0  0  0  0  0  0  0  0
    3.8232    2.7480   -0.0005 C   0  0  0  0  0  0  0  0  0  0  0  0
    4.3449    1.7999    0.8829 C   0  0  0  0  0  0  0  0  0  0  0  0
    3.8730    0.4824    0.8624 C   0  0  0  0  0  0  0  0  0  0  0  0
   -2.7998   -3.0796    1.4924 H   0  0  0  0  0  0  0  0  0  0  0  0
   -1.1094   -2.5789    1.7814 H   0  0  0  0  0  0  0  0  0  0  0  0
   -1.6923   -3.3493    0.1797 H   0  0  0  0  0  0  0  0  0  0  0  0
   -6.0267   -0.1173    0.6729 H   0  0  0  0  0  0  0  0  0  0  0  0
   -6.8328    2.1146   -0.0360 H   0  0  0  0  0  0  0  0  0  0  0  0
   -5.2462    3.7657   -0.9856 H   0  0  0  0  0  0  0  0  0  0  0  0
   -2.8612    3.1984   -1.2300 H   0  0  0  0  0  0  0  0  0  0  0  0
    2.7626   -4.6155   -0.0202 H   0  0  0  0  0  0  0  0  0  0  0  0
    5.0266   -3.3247    0.0842 H   0  0  0  0  0  0  0  0  0  0  0  0
    5.0758   -1.5667   -0.0534 H   0  0  0  0  0  0  0  0  0  0  0  0
    1.5784    0.8117   -1.6420 H   0  0  0  0  0  0  0  0  0  0  0  0
    2.4225    3.1170   -1.5919 H   0  0  0  0  0  0  0  0  0  0  0  0
    4.1897    3.7661    0.0168 H   0  0  0  0  0  0  0  0  0  0  0  0
    5.1119    2.0880    1.5895 H   0  0  0  0  0  0  0  0  0  0  0  0
    4.2735   -0.2297    1.5711 H   0  0  0  0  0  0  0  0  0  0  0  0
  1 26  1  0  0  0  0
  1 27  1  0  0  0  0
  1 28  1  0  0  0  0
  2  1  1  0  0  0  0
  3  2  2  0  0  0  0
  4  3  1  0  0  0  0
  5  4  2  0  0  0  0
  5 29  1  0  0  0  0
  6  5  1  0  0  0  0
  6 30  1  0  0  0  0
  7  6  2  0  0  0  0
  7 31  1  0  0  0  0
  8  7  1  0  0  0  0
  8 32  1  0  0  0  0
  9  8  2  0  0  0  0
  9  4  1  0  0  0  0
 10  9  1  0  0  0  0
 11 10  2  0  0  0  0
 12 10  1  0  0  0  0
 12  2  1  0  0  0  0
 13 12  1  0  0  0  0
 14 13  2  0  0  0  0
 15 14  1  0  0  0  0
 16 15  1  0  0  0  0
 16 33  1  0  0  0  0
 17 16  2  0  0  0  0
 18 17  1  0  0  0  0
 18 34  1  0  0  0  0
 18 35  1  0  0  0  0
 19 17  1  0  0  0  0
 19 14  1  0  0  0  0
 20 19  1  0  0  0  0
 21 20  2  0  0  0  0
 21 36  1  0  0  0  0
 22 21  1  0  0  0  0
 22 37  1  0  0  0  0
 23 22  2  0  0  0  0
 23 38  1  0  0  0  0
 24 23  1  0  0  0  0
 24 39  1  0  0  0  0
 25 24  2  0  0  0  0
 25 20  1  0  0  0  0
 25 40  1  0  0  0  0
M  END
>  <MOL Chiral Flag>
0

>  <energy>
126.73091963470954

$$$$
