>475.sdf
 OpenBabel10062214193D

 53 55  0  0  0  0  0  0  0  0999 V2000
    0.6520   -0.0779    1.2342 C   0  0  0  0  0  0  0  0  0  0  0  0
    0.6878   -1.5310    1.8146 C   0  0  0  0  0  0  0  0  0  0  0  0
   -0.6228   -2.1885    2.1596 N   0  3  0  0  0  0  0  0  0  0  0  0
   -1.2896   -1.5113    3.3323 C   0  0  0  0  0  0  0  0  0  0  0  0
   -2.5586   -2.2666    3.7613 C   0  0  0  0  0  0  0  0  0  0  0  0
   -3.2565   -1.9296    5.0280 N   0  3  0  0  0  0  0  0  0  0  0  0
   -4.7261   -2.2676    5.0199 C   0  0  0  0  0  0  0  0  0  0  0  0
   -5.1295   -3.5638    4.3116 C   0  0  0  0  0  0  0  0  0  0  0  0
   -6.0785   -4.4850    4.7876 C   0  0  0  0  0  0  0  0  0  0  0  0
   -6.4037   -5.5995    3.9781 C   0  0  0  0  0  0  0  0  0  0  0  0
   -5.7546   -5.7929    2.7359 C   0  0  0  0  0  0  0  0  0  0  0  0
   -4.8050   -4.8440    2.3245 C   0  0  0  0  0  0  0  0  0  0  0  0
   -3.9759   -4.8866    1.0623 C   0  0  0  0  0  0  0  0  0  0  0  0
   -2.5123   -4.8822    1.3835 N   0  3  0  0  0  0  0  0  0  0  0  0
   -1.6550   -3.9975    0.5412 C   0  0  0  0  0  0  0  0  0  0  0  0
   -1.4870   -2.4705    0.9483 C   0  0  0  0  0  0  0  0  0  0  0  0
   -4.5884   -3.7893    3.1070 N   0  0  0  0  0  0  0  0  0  0  0  0
    2.0200    0.4450    1.1167 N   0  0  0  0  0  0  0  0  0  0  0  0
    2.6303    1.0558   -0.0375 C   0  0  0  0  0  0  0  0  0  0  0  0
    3.9879    1.4403    0.0338 C   0  0  0  0  0  0  0  0  0  0  0  0
    4.6037    2.0422   -1.0177 N   0  0  0  0  0  0  0  0  0  0  0  0
    3.9450    2.3051   -2.1759 C   0  0  0  0  0  0  0  0  0  0  0  0
    2.6021    1.9522   -2.3054 C   0  0  0  0  0  0  0  0  0  0  0  0
    1.9386    1.3253   -1.2405 C   0  0  0  0  0  0  0  0  0  0  0  0
    0.1152    0.5777    1.9485 H   0  0  0  0  0  0  0  0  0  0  0  0
    0.1099   -0.0479    0.2730 H   0  0  0  0  0  0  0  0  0  0  0  0
    1.3101   -1.4940    2.7382 H   0  0  0  0  0  0  0  0  0  0  0  0
    1.2430   -2.1686    1.0913 H   0  0  0  0  0  0  0  0  0  0  0  0
   -0.3321   -3.1251    2.5277 H   0  0  0  0  0  0  0  0  0  0  0  0
   -1.5681   -0.4627    3.0909 H   0  0  0  0  0  0  0  0  0  0  0  0
   -0.5865   -1.4977    4.1943 H   0  0  0  0  0  0  0  0  0  0  0  0
   -2.2679   -3.3268    3.8632 H   0  0  0  0  0  0  0  0  0  0  0  0
   -3.2303   -2.0324    2.9222 H   0  0  0  0  0  0  0  0  0  0  0  0
   -3.1720   -0.9036    5.2092 H   0  0  0  0  0  0  0  0  0  0  0  0
   -2.7863   -2.4354    5.8157 H   0  0  0  0  0  0  0  0  0  0  0  0
   -5.2342   -1.4715    4.4354 H   0  0  0  0  0  0  0  0  0  0  0  0
   -5.1489   -2.2233    6.0483 H   0  0  0  0  0  0  0  0  0  0  0  0
   -6.5800   -4.3345    5.7363 H   0  0  0  0  0  0  0  0  0  0  0  0
   -7.1530   -6.3091    4.3120 H   0  0  0  0  0  0  0  0  0  0  0  0
   -5.9910   -6.6539    2.1224 H   0  0  0  0  0  0  0  0  0  0  0  0
   -4.2453   -3.9740    0.4881 H   0  0  0  0  0  0  0  0  0  0  0  0
   -4.2400   -5.7706    0.4386 H   0  0  0  0  0  0  0  0  0  0  0  0
   -2.1925   -5.8665    1.2242 H   0  0  0  0  0  0  0  0  0  0  0  0
   -2.3023   -4.7306    2.3859 H   0  0  0  0  0  0  0  0  0  0  0  0
   -2.0362   -4.0481   -0.5021 H   0  0  0  0  0  0  0  0  0  0  0  0
   -0.6276   -4.4239    0.5128 H   0  0  0  0  0  0  0  0  0  0  0  0
   -2.4561   -1.9377    0.9661 H   0  0  0  0  0  0  0  0  0  0  0  0
   -0.9850   -2.0355    0.0577 H   0  0  0  0  0  0  0  0  0  0  0  0
    2.5942    0.4083    1.9741 H   0  0  0  0  0  0  0  0  0  0  0  0
    4.5578    1.2598    0.9368 H   0  0  0  0  0  0  0  0  0  0  0  0
    4.4653    2.7919   -2.9928 H   0  0  0  0  0  0  0  0  0  0  0  0
    2.0787    2.1703   -3.2287 H   0  0  0  0  0  0  0  0  0  0  0  0
    0.8994    1.0754   -1.3667 H   0  0  0  0  0  0  0  0  0  0  0  0
  1 25  1  0  0  0  0
  1 26  1  0  0  0  0
  2  1  1  0  0  0  0
  2 27  1  0  0  0  0
  2 28  1  0  0  0  0
  3  2  1  0  0  0  0
  3 29  1  0  0  0  0
  4  3  1  0  0  0  0
  4 30  1  0  0  0  0
  4 31  1  0  0  0  0
  5  4  1  0  0  0  0
  5 32  1  0  0  0  0
  5 33  1  0  0  0  0
  6  5  1  0  0  0  0
  6 34  1  0  0  0  0
  6 35  1  0  0  0  0
  7  6  1  0  0  0  0
  7 36  1  0  0  0  0
  7 37  1  0  0  0  0
  8  7  1  0  0  0  0
  9  8  2  0  0  0  0
  9 38  1  0  0  0  0
 10  9  1  0  0  0  0
 10 39  1  0  0  0  0
 11 10  2  0  0  0  0
 11 40  1  0  0  0  0
 12 11  1  0  0  0  0
 13 12  1  0  0  0  0
 13 41  1  0  0  0  0
 13 42  1  0  0  0  0
 14 13  1  0  0  0  0
 14 43  1  0  0  0  0
 14 44  1  0  0  0  0
 15 14  1  0  0  0  0
 15 45  1  0  0  0  0
 15 46  1  0  0  0  0
 16 15  1  0  0  0  0
 16  3  1  0  0  0  0
 16 47  1  0  0  0  0
 16 48  1  0  0  0  0
 17 12  2  0  0  0  0
 17  8  1  0  0  0  0
 18  1  1  0  0  0  0
 18 49  1  0  0  0  0
 19 18  1  0  0  0  0
 20 19  2  0  0  0  0
 20 50  1  0  0  0  0
 21 20  1  0  0  0  0
 22 21  2  0  0  0  0
 22 51  1  0  0  0  0
 23 22  1  0  0  0  0
 23 52  1  0  0  0  0
 24 23  2  0  0  0  0
 24 19  1  0  0  0  0
 24 53  1  0  0  0  0
M  CHG  3   3   1   6   1  14   1
M  END
>  <MOL Chiral Flag>
0

>  <energy>
179.53009324102041

$$$$
