>478.sdf
 OpenBabel10062214213D

 33 34  0  0  0  0  0  0  0  0999 V2000
   -9.0665    0.4417    0.1645 C   0  0  0  0  0  0  0  0  0  0  0  0
   -7.5784    0.3541    0.1334 C   0  0  0  0  0  0  0  0  0  0  0  0
   -7.0159   -0.5840    0.6812 O   0  0  0  0  0  0  0  0  0  0  0  0
   -6.8684    1.3350   -0.4865 O   0  0  0  0  0  0  0  0  0  0  0  0
   -5.4888    1.4126   -0.4967 C   0  0  0  0  0  0  0  0  0  0  0  0
   -4.8395    0.2584   -1.2699 C   0  0  0  0  0  0  0  0  0  0  0  0
   -3.3960    0.3586   -1.0857 C   0  0  0  0  0  0  0  0  0  0  0  0
   -2.2491    0.4283   -0.7387 C   0  0  0  0  0  0  0  0  0  0  0  0
   -0.9294    0.3350   -0.2059 C   0  0  0  0  0  0  0  0  0  0  0  0
   -0.6259   -0.3147    0.9868 C   0  0  0  0  0  0  0  0  0  0  0  0
    0.7523   -0.2883    1.3008 C   0  0  0  0  0  0  0  0  0  0  0  0
    1.5211    0.4024    0.3581 C   0  0  0  0  0  0  0  0  0  0  0  0
    0.4799    0.9634   -0.8121 S   0  0  0  0  0  0  0  0  0  0  0  0
    2.9767    0.5575    0.4062 C   0  0  0  0  0  0  0  0  0  0  0  0
    3.8414   -0.1715    1.2302 C   0  0  0  0  0  0  0  0  0  0  0  0
    5.2067    0.1700    1.0545 C   0  0  0  0  0  0  0  0  0  0  0  0
    5.4033    1.1761    0.1051 C   0  0  0  0  0  0  0  0  0  0  0  0
    6.7088    1.7773   -0.2859 C   0  0  0  0  0  0  0  0  0  0  0  0
    3.9121    1.5852   -0.4996 S   0  0  0  0  0  0  0  0  0  0  0  0
   -9.5013   -0.4477    0.6685 H   0  0  0  0  0  0  0  0  0  0  0  0
   -9.4536    0.4998   -0.8730 H   0  0  0  0  0  0  0  0  0  0  0  0
   -9.3642    1.3540    0.7223 H   0  0  0  0  0  0  0  0  0  0  0  0
   -5.1908    2.3670   -0.9827 H   0  0  0  0  0  0  0  0  0  0  0  0
   -5.1228    1.4349    0.5552 H   0  0  0  0  0  0  0  0  0  0  0  0
   -5.1139    0.2823   -2.3450 H   0  0  0  0  0  0  0  0  0  0  0  0
   -5.1404   -0.7216   -0.8488 H   0  0  0  0  0  0  0  0  0  0  0  0
   -1.3677   -0.8003    1.6075 H   0  0  0  0  0  0  0  0  0  0  0  0
    1.1574   -0.7534    2.1881 H   0  0  0  0  0  0  0  0  0  0  0  0
    3.5107   -0.9350    1.9213 H   0  0  0  0  0  0  0  0  0  0  0  0
    6.0081   -0.3027    1.6058 H   0  0  0  0  0  0  0  0  0  0  0  0
    7.5377    1.2927    0.2727 H   0  0  0  0  0  0  0  0  0  0  0  0
    6.8737    1.6416   -1.3737 H   0  0  0  0  0  0  0  0  0  0  0  0
    6.6990    2.8602   -0.0428 H   0  0  0  0  0  0  0  0  0  0  0  0
  1 20  1  0  0  0  0
  1 21  1  0  0  0  0
  1 22  1  0  0  0  0
  2  1  1  0  0  0  0
  3  2  2  0  0  0  0
  4  2  1  0  0  0  0
  5  4  1  0  0  0  0
  5 23  1  0  0  0  0
  5 24  1  0  0  0  0
  6  5  1  0  0  0  0
  6 25  1  0  0  0  0
  6 26  1  0  0  0  0
  7  6  1  0  0  0  0
  8  7  3  0  0  0  0
  9  8  1  0  0  0  0
 10  9  2  0  0  0  0
 10 27  1  0  0  0  0
 11 10  1  0  0  0  0
 11 28  1  0  0  0  0
 12 11  2  0  0  0  0
 13 12  1  0  0  0  0
 13  9  1  0  0  0  0
 14 12  1  0  0  0  0
 15 14  2  0  0  0  0
 15 29  1  0  0  0  0
 16 15  1  0  0  0  0
 16 30  1  0  0  0  0
 17 16  2  0  0  0  0
 18 17  1  0  0  0  0
 18 31  1  0  0  0  0
 18 32  1  0  0  0  0
 18 33  1  0  0  0  0
 19 17  1  0  0  0  0
 19 14  1  0  0  0  0
M  END
>  <MOL Chiral Flag>
0

>  <energy>
28.277867410817567

$$$$
