>479.sdf
 OpenBabel10062214213D

 54 55  0  0  0  0  0  0  0  0999 V2000
    3.7272   -1.3704    2.1951 C   0  0  0  0  0  0  0  0  0  0  0  0
    3.6960   -0.8133    0.7621 C   0  0  1  0  0  0  0  0  0  0  0  0
    2.5013   -1.3742   -0.0868 C   0  0  0  0  0  0  0  0  0  0  0  0
    1.1377   -1.7374    0.5961 C   0  0  0  0  0  0  0  0  0  0  0  0
   -0.2034   -1.0789    0.1236 C   0  0  1  0  0  0  0  0  0  0  0  0
   -1.3757   -1.9945    0.5284 C   0  0  0  0  0  0  0  0  0  0  0  0
   -1.5385   -3.2035   -0.0393 C   0  0  0  0  0  0  0  0  0  0  0  0
   -2.3580   -1.5196    1.5505 C   0  0  0  0  0  0  0  0  0  0  0  0
   -2.9538   -0.1603    1.1624 C   0  0  0  0  0  0  0  0  0  0  0  0
   -2.0229    0.7170    0.2651 C   0  0  2  0  0  0  0  0  0  0  0  0
   -0.4788    0.4504    0.5126 C   0  0  1  0  0  0  0  0  0  0  0  0
   -0.0101    0.7614    1.9651 C   0  0  0  0  0  0  0  0  0  0  0  0
    0.3116    1.3480   -0.4821 C   0  0  0  0  0  0  0  0  0  0  0  0
   -0.0930    2.8326   -0.4367 C   0  0  0  0  0  0  0  0  0  0  0  0
   -1.5761    2.9772   -0.8152 C   0  0  0  0  0  0  0  0  0  0  0  0
   -2.5165    2.2174    0.1568 C   0  0  2  0  0  0  0  0  0  0  0  0
   -2.5746    2.9818    1.5142 C   0  0  0  0  0  0  0  0  0  0  0  0
   -3.9233    2.2234   -0.4565 C   0  0  0  0  0  0  0  0  0  0  0  0
   -4.1292    1.6676   -1.6684 O   0  0  0  0  0  0  0  0  0  0  0  0
   -4.8713    2.7162    0.1361 O   0  0  0  0  0  0  0  0  0  0  0  0
    3.8689    0.7207    0.7681 C   0  0  0  0  0  0  0  0  0  0  0  0
    4.1921    1.2549   -0.6063 C   0  0  0  0  0  0  0  0  0  0  0  0
    3.4350    2.2190   -1.1612 O   0  0  0  0  0  0  0  0  0  0  0  0
    5.1726    0.8423   -1.2067 O   0  0  0  0  0  0  0  0  0  0  0  0
    2.8959   -0.9621    2.8054 H   0  0  0  0  0  0  0  0  0  0  0  0
    3.6705   -2.4797    2.1822 H   0  0  0  0  0  0  0  0  0  0  0  0
    4.6750   -1.0823    2.6978 H   0  0  0  0  0  0  0  0  0  0  0  0
    4.6254   -1.1941    0.2761 H   0  0  0  0  0  0  0  0  0  0  0  0
    2.9112   -2.3801   -0.3446 H   0  0  0  0  0  0  0  0  0  0  0  0
    2.3884   -0.9165   -1.0920 H   0  0  0  0  0  0  0  0  0  0  0  0
    1.1914   -1.7987    1.6981 H   0  0  0  0  0  0  0  0  0  0  0  0
    1.0106   -2.8073    0.3216 H   0  0  0  0  0  0  0  0  0  0  0  0
   -0.2398   -1.1291   -0.9885 H   0  0  0  0  0  0  0  0  0  0  0  0
   -0.8480   -3.5607   -0.7970 H   0  0  0  0  0  0  0  0  0  0  0  0
   -2.3693   -3.8435    0.2407 H   0  0  0  0  0  0  0  0  0  0  0  0
   -3.1711   -2.2402    1.7884 H   0  0  0  0  0  0  0  0  0  0  0  0
   -1.7792   -1.4308    2.4854 H   0  0  0  0  0  0  0  0  0  0  0  0
   -3.2266    0.3229    2.1204 H   0  0  0  0  0  0  0  0  0  0  0  0
   -3.8951   -0.3147    0.5911 H   0  0  0  0  0  0  0  0  0  0  0  0
   -2.1531    0.3112   -0.7671 H   0  0  0  0  0  0  0  0  0  0  0  0
    1.0554    0.5010    2.0866 H   0  0  0  0  0  0  0  0  0  0  0  0
   -0.0521    1.8218    2.2293 H   0  0  0  0  0  0  0  0  0  0  0  0
   -0.5603    0.2229    2.7479 H   0  0  0  0  0  0  0  0  0  0  0  0
    0.1256    1.0113   -1.5264 H   0  0  0  0  0  0  0  0  0  0  0  0
    1.3858    1.2400   -0.3040 H   0  0  0  0  0  0  0  0  0  0  0  0
    0.1194    3.2852    0.5507 H   0  0  0  0  0  0  0  0  0  0  0  0
    0.5148    3.3888   -1.1827 H   0  0  0  0  0  0  0  0  0  0  0  0
   -1.8583    4.0522   -0.8652 H   0  0  0  0  0  0  0  0  0  0  0  0
   -1.6883    2.5635   -1.8429 H   0  0  0  0  0  0  0  0  0  0  0  0
   -2.9630    4.0101    1.3465 H   0  0  0  0  0  0  0  0  0  0  0  0
   -1.6088    3.1270    2.0069 H   0  0  0  0  0  0  0  0  0  0  0  0
   -3.2611    2.4989    2.2370 H   0  0  0  0  0  0  0  0  0  0  0  0
    2.9916    1.2285    1.2069 H   0  0  0  0  0  0  0  0  0  0  0  0
    4.7427    0.9739    1.4082 H   0  0  0  0  0  0  0  0  0  0  0  0
  1 25  1  0  0  0  0
  1 26  1  0  0  0  0
  1 27  1  0  0  0  0
  2  1  1  0  0  0  0
  2 28  1  6  0  0  0
  3  2  1  0  0  0  0
  3 29  1  0  0  0  0
  3 30  1  0  0  0  0
  4  3  1  0  0  0  0
  4 31  1  0  0  0  0
  4 32  1  0  0  0  0
  5  4  1  0  0  0  0
  5 33  1  6  0  0  0
  6  5  1  0  0  0  0
  7  6  2  0  0  0  0
  7 34  1  0  0  0  0
  7 35  1  0  0  0  0
  8  6  1  0  0  0  0
  8 36  1  0  0  0  0
  8 37  1  0  0  0  0
  9  8  1  0  0  0  0
  9 38  1  0  0  0  0
  9 39  1  0  0  0  0
 10  9  1  0  0  0  0
 10 40  1  6  0  0  0
 11 10  1  0  0  0  0
 11  5  1  0  0  0  0
 11 12  1  1  0  0  0
 12 41  1  0  0  0  0
 12 42  1  0  0  0  0
 12 43  1  0  0  0  0
 13 11  1  0  0  0  0
 13 44  1  0  0  0  0
 13 45  1  0  0  0  0
 14 13  1  0  0  0  0
 14 46  1  0  0  0  0
 14 47  1  0  0  0  0
 15 14  1  0  0  0  0
 15 48  1  0  0  0  0
 15 49  1  0  0  0  0
 16 15  1  0  0  0  0
 16 10  1  0  0  0  0
 16 17  1  1  0  0  0
 17 50  1  0  0  0  0
 17 51  1  0  0  0  0
 17 52  1  0  0  0  0
 18 16  1  0  0  0  0
 19 18  1  0  0  0  0
 20 18  2  0  0  0  0
 21  2  1  0  0  0  0
 21 53  1  0  0  0  0
 21 54  1  0  0  0  0
 22 21  1  0  0  0  0
 23 22  1  0  0  0  0
 24 22  2  0  0  0  0
M  END
>  <MOL Chiral Flag>
0

>  <energy>
38.254233951465523

$$$$
