>48.sdf
 OpenBabel10052218093D

 33 35  0  0  0  0  0  0  0  0999 V2000
    5.6671   -0.6746   -1.0578 Br  0  0  0  0  0  0  0  0  0  0  0  0
    4.0217   -0.3439   -0.1472 C   0  0  0  0  0  0  0  0  0  0  0  0
    3.1676    0.6811   -0.5836 C   0  0  0  0  0  0  0  0  0  0  0  0
    1.9985    0.8904    0.0868 N   0  0  0  0  0  0  0  0  0  0  0  0
    1.6427    0.1525    1.1579 C   0  0  0  0  0  0  0  0  0  0  0  0
    0.4528    0.5217    1.6752 N   0  0  0  0  0  0  0  0  0  0  0  0
    0.0312    1.5349    0.8844 C   0  0  0  0  0  0  0  0  0  0  0  0
   -1.3127    2.1762    1.0471 C   0  0  0  0  0  0  0  0  0  0  0  0
   -2.4262    1.4144   -0.1689 S   0  0  0  0  0  0  0  0  0  0  0  0
   -2.3156    2.1121   -1.5331 O   0  0  0  0  0  0  0  0  0  0  0  0
   -3.8789    1.7539    0.1974 O   0  0  0  0  0  0  0  0  0  0  0  0
   -2.3101   -0.3608   -0.3872 C   0  0  0  0  0  0  0  0  0  0  0  0
   -1.7532   -0.9084   -1.5510 C   0  0  0  0  0  0  0  0  0  0  0  0
   -1.6177   -2.2956   -1.6739 C   0  0  0  0  0  0  0  0  0  0  0  0
   -2.0329   -3.1354   -0.6350 C   0  0  0  0  0  0  0  0  0  0  0  0
   -2.5860   -2.5895    0.5268 C   0  0  0  0  0  0  0  0  0  0  0  0
   -2.7234   -1.2048    0.6510 C   0  0  0  0  0  0  0  0  0  0  0  0
    0.9888    1.7699   -0.1028 C   0  0  0  0  0  0  0  0  0  0  0  0
    0.9268    2.7595   -1.1342 N   0  0  0  0  0  0  0  0  0  0  0  0
    1.7974    2.8501   -1.9427 O   0  0  0  0  0  0  0  0  0  0  0  0
    0.0233    3.5382   -1.1654 O   0  0  0  0  0  0  0  0  0  0  0  0
    2.4489   -0.8821    1.6296 C   0  0  0  0  0  0  0  0  0  0  0  0
    1.9274   -1.9462    3.1297 Br  0  0  0  0  0  0  0  0  0  0  0  0
    3.6562   -1.1298    0.9613 C   0  0  0  0  0  0  0  0  0  0  0  0
    3.4500    1.2764   -1.4372 H   0  0  0  0  0  0  0  0  0  0  0  0
   -1.7256    1.8994    2.0403 H   0  0  0  0  0  0  0  0  0  0  0  0
   -1.2654    3.2826    0.9914 H   0  0  0  0  0  0  0  0  0  0  0  0
   -1.4154   -0.2647   -2.3527 H   0  0  0  0  0  0  0  0  0  0  0  0
   -1.1834   -2.7194   -2.5699 H   0  0  0  0  0  0  0  0  0  0  0  0
   -1.9209   -4.2077   -0.7273 H   0  0  0  0  0  0  0  0  0  0  0  0
   -2.9006   -3.2378    1.3343 H   0  0  0  0  0  0  0  0  0  0  0  0
   -3.1389   -0.7861    1.5590 H   0  0  0  0  0  0  0  0  0  0  0  0
    4.3067   -1.9267    1.2975 H   0  0  0  0  0  0  0  0  0  0  0  0
  2  1  1  0  0  0  0
  3  2  2  0  0  0  0
  3 25  1  0  0  0  0
  4  3  1  0  0  0  0
  5  4  1  0  0  0  0
  6  5  2  0  0  0  0
  7  6  1  0  0  0  0
  8  7  1  0  0  0  0
  8 26  1  0  0  0  0
  8 27  1  0  0  0  0
  9  8  1  0  0  0  0
 10  9  2  0  0  0  0
 11  9  2  0  0  0  0
 12  9  1  0  0  0  0
 13 12  2  0  0  0  0
 13 28  1  0  0  0  0
 14 13  1  0  0  0  0
 14 29  1  0  0  0  0
 15 14  2  0  0  0  0
 15 30  1  0  0  0  0
 16 15  1  0  0  0  0
 16 31  1  0  0  0  0
 17 16  2  0  0  0  0
 17 12  1  0  0  0  0
 17 32  1  0  0  0  0
 18  7  2  0  0  0  0
 18  4  1  0  0  0  0
 19 18  1  0  0  0  0
 20 19  2  0  0  0  0
 21 19  2  0  0  0  0
 22  5  1  0  0  0  0
 23 22  1  0  0  0  0
 24 22  2  0  0  0  0
 24  2  1  0  0  0  0
 24 33  1  0  0  0  0
M  END
>  <MOL Chiral Flag>
0

>  <energy>
59.048008158429042

$$$$
