>487.sdf
 OpenBabel10062214333D

 68 69  0  0  0  0  0  0  0  0999 V2000
   -4.4702   -1.2351   -1.5165 C   0  0  0  0  0  0  0  0  0  0  0  0
   -3.1869   -2.0236   -1.5012 C   0  0  0  0  0  0  0  0  0  0  0  0
   -2.9199   -3.0446   -2.6148 C   0  0  0  0  0  0  0  0  0  0  0  0
   -2.8274   -4.5264   -2.1696 C   0  0  0  0  0  0  0  0  0  0  0  0
   -3.9196   -5.4044   -2.7630 C   0  0  0  0  0  0  0  0  0  0  0  0
   -4.0301   -5.7330   -4.0822 C   0  0  0  0  0  0  0  0  0  0  0  0
   -3.0426   -5.2646   -5.1316 C   0  0  0  0  0  0  0  0  0  0  0  0
   -5.1467   -6.6132   -4.5361 C   0  0  0  0  0  0  0  0  0  0  0  0
   -6.0460   -7.0961   -3.6559 O   0  0  0  0  0  0  0  0  0  0  0  0
   -5.2534   -6.9080   -5.7171 O   0  0  0  0  0  0  0  0  0  0  0  0
   -2.2326   -1.7874   -0.5648 C   0  0  0  0  0  0  0  0  0  0  0  0
   -2.2963   -0.6916    0.5159 C   0  0  0  0  0  0  0  0  0  0  0  0
   -0.9463   -0.6885    1.2663 C   0  0  0  0  0  0  0  0  0  0  0  0
   -0.5895    0.3466    2.3477 C   0  0  0  0  0  0  0  0  0  0  0  0
   -1.4393    0.4378    3.5953 C   0  0  0  0  0  0  0  0  0  0  0  0
    0.6006    1.0144    2.2275 C   0  0  0  0  0  0  0  0  0  0  0  0
    1.3837    1.5579    3.4161 C   0  0  0  0  0  0  0  0  0  0  0  0
    1.3902    3.0045    4.0207 C   0  0  0  0  0  0  0  0  0  0  0  0
    2.2512    3.0308    5.3688 C   0  0  2  0  0  0  0  0  0  0  0  0
    3.6124    2.3302    5.1601 C   0  0  0  0  0  0  0  0  0  0  0  0
    1.4482    2.2888    6.5081 C   0  0  0  0  0  0  0  0  0  0  0  0
    0.4585    3.2699    7.1448 C   0  0  0  0  0  0  0  0  0  0  0  0
    1.3208    4.2999    7.7980 C   0  0  0  0  0  0  0  0  0  0  0  0
    2.3956    4.8046    7.0516 C   0  0  0  0  0  0  0  0  0  0  0  0
    2.6016    4.3355    5.7821 O   0  0  0  0  0  0  0  0  0  0  0  0
    3.3049    5.6983    7.6686 C   0  0  0  0  0  0  0  0  0  0  0  0
    4.5198    6.1931    6.9340 C   0  0  0  0  0  0  0  0  0  0  0  0
    3.1094    6.0682    9.0132 C   0  0  0  0  0  0  0  0  0  0  0  0
    2.0281    5.5539    9.7457 C   0  0  0  0  0  0  0  0  0  0  0  0
    1.8539    5.8800   11.0421 O   0  0  0  0  0  0  0  0  0  0  0  0
    1.1379    4.6692    9.1343 C   0  0  0  0  0  0  0  0  0  0  0  0
   -4.2538   -0.1521   -1.6152 H   0  0  0  0  0  0  0  0  0  0  0  0
   -5.1184   -1.5388   -2.3656 H   0  0  0  0  0  0  0  0  0  0  0  0
   -5.0333   -1.4190   -0.5772 H   0  0  0  0  0  0  0  0  0  0  0  0
   -1.9564   -2.7575   -3.0905 H   0  0  0  0  0  0  0  0  0  0  0  0
   -3.6749   -2.9514   -3.4241 H   0  0  0  0  0  0  0  0  0  0  0  0
   -1.8430   -4.9619   -2.4495 H   0  0  0  0  0  0  0  0  0  0  0  0
   -2.8875   -4.5793   -1.0622 H   0  0  0  0  0  0  0  0  0  0  0  0
   -4.6441   -5.8105   -2.0635 H   0  0  0  0  0  0  0  0  0  0  0  0
   -3.5765   -4.6865   -5.9153 H   0  0  0  0  0  0  0  0  0  0  0  0
   -2.5755   -6.1529   -5.6101 H   0  0  0  0  0  0  0  0  0  0  0  0
   -2.2242   -4.6359   -4.7369 H   0  0  0  0  0  0  0  0  0  0  0  0
   -1.3242   -2.3837   -0.6245 H   0  0  0  0  0  0  0  0  0  0  0  0
   -2.4289    0.2925    0.0211 H   0  0  0  0  0  0  0  0  0  0  0  0
   -3.1422   -0.8673    1.2167 H   0  0  0  0  0  0  0  0  0  0  0  0
   -0.1545   -0.6656    0.4873 H   0  0  0  0  0  0  0  0  0  0  0  0
   -0.8709   -1.6790    1.7687 H   0  0  0  0  0  0  0  0  0  0  0  0
   -1.0685    1.1990    4.3137 H   0  0  0  0  0  0  0  0  0  0  0  0
   -2.4702    0.7399    3.3144 H   0  0  0  0  0  0  0  0  0  0  0  0
   -1.4765   -0.5440    4.1089 H   0  0  0  0  0  0  0  0  0  0  0  0
    1.1847    0.8417    1.3269 H   0  0  0  0  0  0  0  0  0  0  0  0
    1.2304    0.8029    4.2018 H   0  0  0  0  0  0  0  0  0  0  0  0
    2.4291    1.3955    3.0843 H   0  0  0  0  0  0  0  0  0  0  0  0
    0.3594    3.3602    4.2198 H   0  0  0  0  0  0  0  0  0  0  0  0
    1.8341    3.6858    3.2611 H   0  0  0  0  0  0  0  0  0  0  0  0
    4.2273    2.4159    6.0815 H   0  0  0  0  0  0  0  0  0  0  0  0
    3.5157    1.2462    4.9538 H   0  0  0  0  0  0  0  0  0  0  0  0
    4.1718    2.8219    4.3336 H   0  0  0  0  0  0  0  0  0  0  0  0
    0.9199    1.3856    6.1620 H   0  0  0  0  0  0  0  0  0  0  0  0
    2.1361    1.9499    7.3165 H   0  0  0  0  0  0  0  0  0  0  0  0
   -0.1846    3.7352    6.3688 H   0  0  0  0  0  0  0  0  0  0  0  0
   -0.1971    2.7714    7.8897 H   0  0  0  0  0  0  0  0  0  0  0  0
    5.1412    5.3262    6.6225 H   0  0  0  0  0  0  0  0  0  0  0  0
    4.2211    6.7769    6.0417 H   0  0  0  0  0  0  0  0  0  0  0  0
    5.1522    6.8390    7.5836 H   0  0  0  0  0  0  0  0  0  0  0  0
    3.8117    6.7325    9.5051 H   0  0  0  0  0  0  0  0  0  0  0  0
    2.4695    6.4614   11.5117 H   0  0  0  0  0  0  0  0  0  0  0  0
    0.3187    4.2536    9.7087 H   0  0  0  0  0  0  0  0  0  0  0  0
  1 32  1  0  0  0  0
  1 33  1  0  0  0  0
  1 34  1  0  0  0  0
  2  1  1  0  0  0  0
  3  2  1  0  0  0  0
  3 35  1  0  0  0  0
  3 36  1  0  0  0  0
  4  3  1  0  0  0  0
  4 37  1  0  0  0  0
  4 38  1  0  0  0  0
  5  4  1  0  0  0  0
  5 39  1  0  0  0  0
  6  5  2  0  0  0  0
  7  6  1  0  0  0  0
  7 40  1  0  0  0  0
  7 41  1  0  0  0  0
  7 42  1  0  0  0  0
  8  6  1  0  0  0  0
  9  8  1  0  0  0  0
 10  8  2  0  0  0  0
 11  2  2  0  0  0  0
 11 43  1  0  0  0  0
 12 11  1  0  0  0  0
 12 44  1  0  0  0  0
 12 45  1  0  0  0  0
 13 12  1  0  0  0  0
 13 46  1  0  0  0  0
 13 47  1  0  0  0  0
 14 13  1  0  0  0  0
 15 14  1  0  0  0  0
 15 48  1  0  0  0  0
 15 49  1  0  0  0  0
 15 50  1  0  0  0  0
 16 14  2  0  0  0  0
 16 51  1  0  0  0  0
 17 16  1  0  0  0  0
 17 52  1  0  0  0  0
 17 53  1  0  0  0  0
 18 17  1  0  0  0  0
 18 54  1  0  0  0  0
 18 55  1  0  0  0  0
 19 18  1  6  0  0  0
 20 19  1  0  0  0  0
 20 56  1  0  0  0  0
 20 57  1  0  0  0  0
 20 58  1  0  0  0  0
 21 19  1  0  0  0  0
 21 59  1  0  0  0  0
 21 60  1  0  0  0  0
 22 21  1  0  0  0  0
 22 61  1  0  0  0  0
 22 62  1  0  0  0  0
 23 22  1  0  0  0  0
 24 23  2  0  0  0  0
 25 24  1  0  0  0  0
 25 19  1  0  0  0  0
 26 24  1  0  0  0  0
 27 26  1  0  0  0  0
 27 63  1  0  0  0  0
 27 64  1  0  0  0  0
 27 65  1  0  0  0  0
 28 26  2  0  0  0  0
 28 66  1  0  0  0  0
 29 28  1  0  0  0  0
 30 29  1  0  0  0  0
 30 67  1  0  0  0  0
 31 29  2  0  0  0  0
 31 23  1  0  0  0  0
 31 68  1  0  0  0  0
M  END
>  <MOL Chiral Flag>
0

>  <energy>
50.051170352968427

$$$$
