>490.sdf
 OpenBabel10062214433D

 74 78  0  0  0  0  0  0  0  0999 V2000
    2.8304    5.8812   -1.0829 C   0  0  0  0  0  0  0  0  0  0  0  0
    1.6803    6.0421   -0.3328 O   0  0  0  0  0  0  0  0  0  0  0  0
    0.4381    5.6156   -0.6950 C   0  0  0  0  0  0  0  0  0  0  0  0
    0.2720    5.0839   -1.7854 O   0  0  0  0  0  0  0  0  0  0  0  0
   -0.7582    6.1964    0.0330 C   0  0  2  0  0  0  0  0  0  0  0  0
   -0.8514    7.6517   -0.4927 C   0  0  0  0  0  0  0  0  0  0  0  0
   -0.5376    6.2686    1.5751 C   0  0  0  0  0  0  0  0  0  0  0  0
   -0.8014    4.9397    2.3158 C   0  0  0  0  0  0  0  0  0  0  0  0
   -2.2509    4.3992    2.0633 C   0  0  2  0  0  0  0  0  0  0  0  0
   -3.2648    5.4659    2.6021 C   0  0  0  0  0  0  0  0  0  0  0  0
   -2.5675    3.1181    2.9226 C   0  0  0  0  0  0  0  0  0  0  0  0
   -2.2533    1.7415    2.3019 C   0  0  0  0  0  0  0  0  0  0  0  0
   -2.7777    1.6020    0.8187 C   0  0  2  0  0  0  0  0  0  0  0  0
   -4.3356    1.7680    0.9020 C   0  0  0  0  0  0  0  0  0  0  0  0
   -2.5013    0.2044    0.1503 C   0  0  0  0  0  0  0  0  0  0  0  0
   -1.9632   -0.7965    0.8912 C   0  0  0  0  0  0  0  0  0  0  0  0
   -1.6344   -2.1209    0.3566 C   0  0  0  0  0  0  0  0  0  0  0  0
   -1.7567   -2.4243   -0.9410 C   0  0  0  0  0  0  0  0  0  0  0  0
   -1.3913   -3.8008   -1.4477 C   0  0  0  0  0  0  0  0  0  0  0  0
   -0.9649   -4.8873   -0.4756 C   0  0  0  0  0  0  0  0  0  0  0  0
   -1.4571   -4.0645   -2.7727 C   0  0  0  0  0  0  0  0  0  0  0  0
   -1.1345   -5.2948   -3.2431 O   0  0  0  0  0  0  0  0  0  0  0  0
   -1.8885   -3.0088   -3.7174 C   0  0  0  0  0  0  0  0  0  0  0  0
   -1.9366   -3.2361   -4.9149 O   0  0  0  0  0  0  0  0  0  0  0  0
   -2.3060   -1.6891   -3.2119 C   0  0  0  0  0  0  0  0  0  0  0  0
   -2.2632   -1.3881   -1.8909 C   0  0  0  0  0  0  0  0  0  0  0  0
   -2.7858   -0.0168   -1.3794 C   0  0  1  0  0  0  0  0  0  0  0  0
   -4.3043   -0.0413   -1.7302 C   0  0  0  0  0  0  0  0  0  0  0  0
   -2.0958    1.1486   -2.1433 C   0  0  0  0  0  0  0  0  0  0  0  0
   -2.4244    2.5517   -1.5476 C   0  0  0  0  0  0  0  0  0  0  0  0
   -2.0173    2.7169   -0.0380 C   0  0  2  0  0  0  0  0  0  0  0  0
   -0.4686    2.4567    0.0233 C   0  0  0  0  0  0  0  0  0  0  0  0
   -2.4755    4.1632    0.5092 C   0  0  2  0  0  0  0  0  0  0  0  0
   -2.1098    5.4697   -0.2922 C   0  0  0  0  0  0  0  0  0  0  0  0
    3.5834    5.3303   -0.4845 H   0  0  0  0  0  0  0  0  0  0  0  0
    3.2394    6.8838   -1.3309 H   0  0  0  0  0  0  0  0  0  0  0  0
    2.6557    5.3339   -2.0332 H   0  0  0  0  0  0  0  0  0  0  0  0
   -1.0145    7.6667   -1.5927 H   0  0  0  0  0  0  0  0  0  0  0  0
    0.0764    8.2224   -0.2675 H   0  0  0  0  0  0  0  0  0  0  0  0
   -1.6982    8.1954   -0.0194 H   0  0  0  0  0  0  0  0  0  0  0  0
    0.4791    6.6495    1.8136 H   0  0  0  0  0  0  0  0  0  0  0  0
   -1.2147    7.0294    2.0066 H   0  0  0  0  0  0  0  0  0  0  0  0
   -0.0088    4.2431    2.0434 H   0  0  0  0  0  0  0  0  0  0  0  0
   -0.6647    5.1241    3.4040 H   0  0  0  0  0  0  0  0  0  0  0  0
   -4.3107    5.1178    2.4581 H   0  0  0  0  0  0  0  0  0  0  0  0
   -3.1086    5.6356    3.6897 H   0  0  0  0  0  0  0  0  0  0  0  0
   -3.2303    6.4523    2.1112 H   0  0  0  0  0  0  0  0  0  0  0  0
   -3.6510    3.0796    3.1403 H   0  0  0  0  0  0  0  0  0  0  0  0
   -2.1289    3.2057    3.9405 H   0  0  0  0  0  0  0  0  0  0  0  0
   -1.1693    1.5528    2.3794 H   0  0  0  0  0  0  0  0  0  0  0  0
   -2.7297    0.9830    2.9620 H   0  0  0  0  0  0  0  0  0  0  0  0
   -4.6975    2.6598    1.4329 H   0  0  0  0  0  0  0  0  0  0  0  0
   -4.7838    0.8951    1.4237 H   0  0  0  0  0  0  0  0  0  0  0  0
   -4.8355    1.9184   -0.0439 H   0  0  0  0  0  0  0  0  0  0  0  0
   -1.7518   -0.6697    1.9410 H   0  0  0  0  0  0  0  0  0  0  0  0
   -1.2618   -2.8509    1.0652 H   0  0  0  0  0  0  0  0  0  0  0  0
   -1.7830   -5.0695    0.2535 H   0  0  0  0  0  0  0  0  0  0  0  0
   -0.0497   -4.5724    0.0665 H   0  0  0  0  0  0  0  0  0  0  0  0
   -0.7417   -5.8581   -0.9640 H   0  0  0  0  0  0  0  0  0  0  0  0
   -1.1814   -5.5154   -4.1833 H   0  0  0  0  0  0  0  0  0  0  0  0
   -2.6675   -0.9678   -3.9364 H   0  0  0  0  0  0  0  0  0  0  0  0
   -4.8400   -0.7728   -1.0884 H   0  0  0  0  0  0  0  0  0  0  0  0
   -4.4787   -0.3404   -2.7831 H   0  0  0  0  0  0  0  0  0  0  0  0
   -4.8152    0.9221   -1.7320 H   0  0  0  0  0  0  0  0  0  0  0  0
   -0.9998    0.9912   -2.1445 H   0  0  0  0  0  0  0  0  0  0  0  0
   -2.3869    1.1454   -3.2146 H   0  0  0  0  0  0  0  0  0  0  0  0
   -3.5032    2.7633   -1.6770 H   0  0  0  0  0  0  0  0  0  0  0  0
   -1.8817    3.2969   -2.1650 H   0  0  0  0  0  0  0  0  0  0  0  0
   -0.2049    1.4187   -0.2473 H   0  0  0  0  0  0  0  0  0  0  0  0
    0.0926    3.0872   -0.6660 H   0  0  0  0  0  0  0  0  0  0  0  0
    0.0061    2.5414    0.9983 H   0  0  0  0  0  0  0  0  0  0  0  0
   -3.5689    4.1181    0.3460 H   0  0  0  0  0  0  0  0  0  0  0  0
   -2.8993    6.1937   -0.0032 H   0  0  0  0  0  0  0  0  0  0  0  0
   -2.2698    5.3566   -1.3835 H   0  0  0  0  0  0  0  0  0  0  0  0
  1 35  1  0  0  0  0
  1 36  1  0  0  0  0
  1 37  1  0  0  0  0
  2  1  1  0  0  0  0
  3  2  1  0  0  0  0
  4  3  2  0  0  0  0
  5  3  1  6  0  0  0
  6  5  1  0  0  0  0
  6 38  1  0  0  0  0
  6 39  1  0  0  0  0
  6 40  1  0  0  0  0
  7  5  1  0  0  0  0
  7 41  1  0  0  0  0
  7 42  1  0  0  0  0
  8  7  1  0  0  0  0
  8 43  1  0  0  0  0
  8 44  1  0  0  0  0
  9  8  1  0  0  0  0
  9 10  1  1  0  0  0
 10 45  1  0  0  0  0
 10 46  1  0  0  0  0
 10 47  1  0  0  0  0
 11  9  1  0  0  0  0
 11 48  1  0  0  0  0
 11 49  1  0  0  0  0
 12 11  1  0  0  0  0
 12 50  1  0  0  0  0
 12 51  1  0  0  0  0
 13 12  1  0  0  0  0
 13 14  1  6  0  0  0
 14 52  1  0  0  0  0
 14 53  1  0  0  0  0
 14 54  1  0  0  0  0
 15 13  1  0  0  0  0
 16 15  2  0  0  0  0
 16 55  1  0  0  0  0
 17 16  1  0  0  0  0
 17 56  1  0  0  0  0
 18 17  2  0  0  0  0
 19 18  1  0  0  0  0
 20 19  1  0  0  0  0
 20 57  1  0  0  0  0
 20 58  1  0  0  0  0
 20 59  1  0  0  0  0
 21 19  2  0  0  0  0
 22 21  1  0  0  0  0
 22 60  1  0  0  0  0
 23 21  1  0  0  0  0
 24 23  2  0  0  0  0
 25 23  1  0  0  0  0
 25 61  1  0  0  0  0
 26 25  2  0  0  0  0
 26 18  1  0  0  0  0
 27 26  1  0  0  0  0
 27 15  1  0  0  0  0
 27 28  1  6  0  0  0
 28 62  1  0  0  0  0
 28 63  1  0  0  0  0
 28 64  1  0  0  0  0
 29 27  1  0  0  0  0
 29 65  1  0  0  0  0
 29 66  1  0  0  0  0
 30 29  1  0  0  0  0
 30 67  1  0  0  0  0
 30 68  1  0  0  0  0
 31 30  1  0  0  0  0
 31 13  1  0  0  0  0
 31 32  1  1  0  0  0
 32 69  1  0  0  0  0
 32 70  1  0  0  0  0
 32 71  1  0  0  0  0
 33 31  1  0  0  0  0
 33  9  1  0  0  0  0
 33 72  1  6  0  0  0
 34 33  1  0  0  0  0
 34  5  1  0  0  0  0
 34 73  1  0  0  0  0
 34 74  1  0  0  0  0
M  END
>  <MOL Chiral Flag>
0

>  <energy>
180.41314046854839

$$$$
