>493.sdf
 OpenBabel10062214453D

 33 34  0  0  0  0  0  0  0  0999 V2000
    2.5740   -3.1450   -2.5302 C   0  0  0  0  0  0  0  0  0  0  0  0
    3.7505   -2.8056   -1.8910 O   0  0  0  0  0  0  0  0  0  0  0  0
    3.9438   -1.6862   -1.1406 C   0  0  0  0  0  0  0  0  0  0  0  0
    5.2063   -1.4647   -0.5717 C   0  0  0  0  0  0  0  0  0  0  0  0
    6.1985   -2.3538   -0.7870 O   0  0  0  0  0  0  0  0  0  0  0  0
    5.4335   -0.3249    0.2155 C   0  0  0  0  0  0  0  0  0  0  0  0
    4.4075    0.5982    0.4367 C   0  0  0  0  0  0  0  0  0  0  0  0
    3.1413    0.3929   -0.1264 C   0  0  0  0  0  0  0  0  0  0  0  0
    2.0564    1.3752    0.1040 C   0  0  0  0  0  0  0  0  0  0  0  0
    0.8842    1.1487   -0.3749 N   0  0  0  0  0  0  0  0  0  0  0  0
   -0.1623    2.0311   -0.2345 N   0  0  0  0  0  0  0  0  0  0  0  0
   -1.3892    1.6796   -0.6963 C   0  0  0  0  0  0  0  0  0  0  0  0
   -1.5534    0.5726   -1.1896 O   0  0  0  0  0  0  0  0  0  0  0  0
   -2.5292    2.6179   -0.6312 C   0  0  0  0  0  0  0  0  0  0  0  0
   -2.4699    3.8803   -0.1489 N   0  0  0  0  0  0  0  0  0  0  0  0
   -3.6679    4.3817   -0.2895 O   0  0  0  0  0  0  0  0  0  0  0  0
   -4.4934    3.5337   -0.8270 N   0  3  0  0  0  0  0  0  0  0  0  0
   -5.7728    3.7792   -1.0905 O   0  5  0  0  0  0  0  0  0  0  0  0
   -3.8233    2.3984   -1.0621 C   0  0  0  0  0  0  0  0  0  0  0  0
   -4.3966    1.1577   -1.6760 C   0  0  0  0  0  0  0  0  0  0  0  0
    2.9137   -0.7512   -0.9153 C   0  0  0  0  0  0  0  0  0  0  0  0
    2.7024   -4.1280   -3.0276 H   0  0  0  0  0  0  0  0  0  0  0  0
    1.7449   -3.2332   -1.7957 H   0  0  0  0  0  0  0  0  0  0  0  0
    2.3225   -2.3871   -3.3030 H   0  0  0  0  0  0  0  0  0  0  0  0
    7.0838   -2.2304   -0.4163 H   0  0  0  0  0  0  0  0  0  0  0  0
    6.4074   -0.1555    0.6571 H   0  0  0  0  0  0  0  0  0  0  0  0
    4.6002    1.4712    1.0483 H   0  0  0  0  0  0  0  0  0  0  0  0
    2.2534    2.2809    0.6732 H   0  0  0  0  0  0  0  0  0  0  0  0
   -0.0105    2.9584    0.1937 H   0  0  0  0  0  0  0  0  0  0  0  0
   -5.4683    1.2975   -1.9253 H   0  0  0  0  0  0  0  0  0  0  0  0
   -3.8435    0.9103   -2.6062 H   0  0  0  0  0  0  0  0  0  0  0  0
   -4.3046    0.3139   -0.9600 H   0  0  0  0  0  0  0  0  0  0  0  0
    1.9374   -0.9090   -1.3524 H   0  0  0  0  0  0  0  0  0  0  0  0
  1 22  1  0  0  0  0
  1 23  1  0  0  0  0
  1 24  1  0  0  0  0
  2  1  1  0  0  0  0
  3  2  1  0  0  0  0
  4  3  2  0  0  0  0
  5  4  1  0  0  0  0
  5 25  1  0  0  0  0
  6  4  1  0  0  0  0
  6 26  1  0  0  0  0
  7  6  2  0  0  0  0
  7 27  1  0  0  0  0
  8  7  1  0  0  0  0
  9  8  1  0  0  0  0
  9 28  1  0  0  0  0
 10  9  2  0  0  0  0
 11 10  1  0  0  0  0
 11 29  1  0  0  0  0
 12 11  1  0  0  0  0
 13 12  2  0  0  0  0
 14 12  1  0  0  0  0
 15 14  2  0  0  0  0
 16 15  1  0  0  0  0
 17 16  1  0  0  0  0
 18 17  1  0  0  0  0
 19 17  2  0  0  0  0
 19 14  1  0  0  0  0
 20 19  1  0  0  0  0
 20 30  1  0  0  0  0
 20 31  1  0  0  0  0
 20 32  1  0  0  0  0
 21  8  2  0  0  0  0
 21  3  1  0  0  0  0
 21 33  1  0  0  0  0
M  CHG  2  17   1  18  -1
M  END
>  <MOL Chiral Flag>
0

>  <energy>
100.8407277553319

$$$$
