>497.sdf
 OpenBabel10062214473D

 52 55  0  0  0  0  0  0  0  0999 V2000
    0.3524    4.7520   -0.8208 C   0  0  0  0  0  0  0  0  0  0  0  0
   -0.9287    4.6208   -1.5824 C   0  0  0  0  0  0  0  0  0  0  0  0
   -1.5318    3.4031   -1.7102 N   0  0  0  0  0  0  0  0  0  0  0  0
   -2.6962    3.2352   -2.4000 C   0  0  0  0  0  0  0  0  0  0  0  0
   -3.3179    1.9533   -2.5324 C   0  0  0  0  0  0  0  0  0  0  0  0
   -2.8376    0.8000   -1.9792 O   0  0  0  0  0  0  0  0  0  0  0  0
   -1.7906    0.6815   -1.0927 C   0  0  0  0  0  0  0  0  0  0  0  0
   -1.6339   -0.7726   -0.6259 C   0  0  0  0  0  0  0  0  0  0  0  0
   -0.5744   -0.8081    0.4739 C   0  0  0  0  0  0  0  0  0  0  0  0
   -0.2873   -2.0939    0.8992 O   0  0  0  0  0  0  0  0  0  0  0  0
    0.2584   -2.3346    2.1216 C   0  0  0  0  0  0  0  0  0  0  0  0
   -0.3797   -1.8683    3.2852 C   0  0  0  0  0  0  0  0  0  0  0  0
    0.1802   -2.1046    4.5422 C   0  0  0  0  0  0  0  0  0  0  0  0
   -0.6229   -1.5060    5.9824 Cl  0  0  0  0  0  0  0  0  0  0  0  0
    1.3773   -2.8158    4.6518 C   0  0  0  0  0  0  0  0  0  0  0  0
    2.0125   -3.3024    3.5056 C   0  0  0  0  0  0  0  0  0  0  0  0
    1.4672   -3.0635    2.2375 C   0  0  0  0  0  0  0  0  0  0  0  0
    2.1182   -3.5275    1.1400 O   0  0  0  0  0  0  0  0  0  0  0  0
    2.3832   -2.7656    0.0476 C   0  0  0  0  0  0  0  0  0  0  0  0
    2.7128   -1.4026    0.1833 C   0  0  0  0  0  0  0  0  0  0  0  0
    2.9592   -0.6208   -0.9465 C   0  0  0  0  0  0  0  0  0  0  0  0
    2.8833   -1.1896   -2.2199 C   0  0  0  0  0  0  0  0  0  0  0  0
    3.1702   -0.1990   -3.6381 Cl  0  0  0  0  0  0  0  0  0  0  0  0
    2.5763   -2.5475   -2.3624 C   0  0  0  0  0  0  0  0  0  0  0  0
    2.3340   -3.3382   -1.2320 C   0  0  0  0  0  0  0  0  0  0  0  0
    1.9349   -5.0371   -1.4315 Cl  0  0  0  0  0  0  0  0  0  0  0  0
   -4.5084    1.8543   -3.2639 C   0  0  0  0  0  0  0  0  0  0  0  0
   -5.0924    2.9774   -3.8502 C   0  0  0  0  0  0  0  0  0  0  0  0
   -4.4954    4.2284   -3.7221 C   0  0  0  0  0  0  0  0  0  0  0  0
   -3.3028    4.3664   -3.0055 C   0  0  0  0  0  0  0  0  0  0  0  0
   -2.6967    5.6225   -2.8785 C   0  0  0  0  0  0  0  0  0  0  0  0
   -1.5081    5.7507   -2.1673 C   0  0  0  0  0  0  0  0  0  0  0  0
    0.6796    3.7687   -0.4230 H   0  0  0  0  0  0  0  0  0  0  0  0
    0.2134    5.4547    0.0283 H   0  0  0  0  0  0  0  0  0  0  0  0
    1.1458    5.1491   -1.4897 H   0  0  0  0  0  0  0  0  0  0  0  0
   -2.0080    1.3159   -0.2054 H   0  0  0  0  0  0  0  0  0  0  0  0
   -0.8407    1.0044   -1.5736 H   0  0  0  0  0  0  0  0  0  0  0  0
   -2.5947   -1.1482   -0.2097 H   0  0  0  0  0  0  0  0  0  0  0  0
   -1.3404   -1.4147   -1.4859 H   0  0  0  0  0  0  0  0  0  0  0  0
    0.3557   -0.3567    0.0832 H   0  0  0  0  0  0  0  0  0  0  0  0
   -0.9269   -0.1744    1.3137 H   0  0  0  0  0  0  0  0  0  0  0  0
   -1.3150   -1.3280    3.2150 H   0  0  0  0  0  0  0  0  0  0  0  0
    1.8158   -2.9908    5.6258 H   0  0  0  0  0  0  0  0  0  0  0  0
    2.9430   -3.8473    3.6010 H   0  0  0  0  0  0  0  0  0  0  0  0
    2.7690   -0.9471    1.1644 H   0  0  0  0  0  0  0  0  0  0  0  0
    3.1998    0.4285   -0.8305 H   0  0  0  0  0  0  0  0  0  0  0  0
    2.5197   -2.9863   -3.3501 H   0  0  0  0  0  0  0  0  0  0  0  0
   -4.9920    0.8915   -3.3711 H   0  0  0  0  0  0  0  0  0  0  0  0
   -6.0156    2.8766   -4.4052 H   0  0  0  0  0  0  0  0  0  0  0  0
   -4.9635    5.0902   -4.1833 H   0  0  0  0  0  0  0  0  0  0  0  0
   -3.1432    6.5000   -3.3314 H   0  0  0  0  0  0  0  0  0  0  0  0
   -1.0387    6.7228   -2.0720 H   0  0  0  0  0  0  0  0  0  0  0  0
  1 33  1  0  0  0  0
  1 34  1  0  0  0  0
  1 35  1  0  0  0  0
  2  1  1  0  0  0  0
  3  2  2  0  0  0  0
  4  3  1  0  0  0  0
  5  4  2  0  0  0  0
  6  5  1  0  0  0  0
  7  6  1  0  0  0  0
  7 36  1  0  0  0  0
  7 37  1  0  0  0  0
  8  7  1  0  0  0  0
  8 38  1  0  0  0  0
  8 39  1  0  0  0  0
  9  8  1  0  0  0  0
  9 40  1  0  0  0  0
  9 41  1  0  0  0  0
 10  9  1  0  0  0  0
 11 10  1  0  0  0  0
 12 11  2  0  0  0  0
 12 42  1  0  0  0  0
 13 12  1  0  0  0  0
 14 13  1  0  0  0  0
 15 13  2  0  0  0  0
 15 43  1  0  0  0  0
 16 15  1  0  0  0  0
 16 44  1  0  0  0  0
 17 16  2  0  0  0  0
 17 11  1  0  0  0  0
 18 17  1  0  0  0  0
 19 18  1  0  0  0  0
 20 19  2  0  0  0  0
 20 45  1  0  0  0  0
 21 20  1  0  0  0  0
 21 46  1  0  0  0  0
 22 21  2  0  0  0  0
 23 22  1  0  0  0  0
 24 22  1  0  0  0  0
 24 47  1  0  0  0  0
 25 24  2  0  0  0  0
 25 19  1  0  0  0  0
 26 25  1  0  0  0  0
 27  5  1  0  0  0  0
 27 48  1  0  0  0  0
 28 27  2  0  0  0  0
 28 49  1  0  0  0  0
 29 28  1  0  0  0  0
 29 50  1  0  0  0  0
 30 29  2  0  0  0  0
 30  4  1  0  0  0  0
 31 30  1  0  0  0  0
 31 51  1  0  0  0  0
 32 31  2  0  0  0  0
 32  2  1  0  0  0  0
 32 52  1  0  0  0  0
M  END
>  <MOL Chiral Flag>
0

>  <energy>
112.44989831514978

$$$$
