>502.sdf
 OpenBabel10042217573D

 20 21  0  0  0  0  0  0  0  0999 V2000
    2.0945   -1.6428    1.4189 O   0  0  0  0  0  0  0  0  0  0  0  0
    1.5366   -0.5982    0.7312 C   0  0  0  0  0  0  0  0  0  0  0  0
    2.3841    0.4746    0.4762 C   0  0  0  0  0  0  0  0  0  0  0  0
    1.9031    1.5860   -0.2075 C   0  0  0  0  0  0  0  0  0  0  0  0
    0.5766    1.6110   -0.6453 C   0  0  0  0  0  0  0  0  0  0  0  0
    0.1319    2.7297   -1.2888 O   0  0  0  0  0  0  0  0  0  0  0  0
   -0.2876    0.5264   -0.4052 C   0  0  0  0  0  0  0  0  0  0  0  0
    0.1975   -0.5764    0.3035 C   0  0  0  0  0  0  0  0  0  0  0  0
   -0.6884   -1.7111    0.6195 C   0  0  0  0  0  0  0  0  0  0  0  0
   -0.2097   -2.7082    1.1550 O   0  0  0  0  0  0  0  0  0  0  0  0
   -2.1294   -1.5901    0.3031 C   0  0  0  0  0  0  0  0  0  0  0  0
   -3.1403   -2.8698    0.8878 Cl  0  0  0  0  0  0  0  0  0  0  0  0
   -2.5947   -0.5528   -0.3987 C   0  0  0  0  0  0  0  0  0  0  0  0
   -4.2722   -0.3783   -0.8052 Cl  0  0  0  0  0  0  0  0  0  0  0  0
   -1.6891    0.5158   -0.9031 C   0  0  0  0  0  0  0  0  0  0  0  0
   -2.0920    1.3365   -1.7177 O   0  0  0  0  0  0  0  0  0  0  0  0
    1.4244   -2.3573    1.5164 H   0  0  0  0  0  0  0  0  0  0  0  0
    3.4161    0.4439    0.8186 H   0  0  0  0  0  0  0  0  0  0  0  0
    2.5721    2.4246   -0.3828 H   0  0  0  0  0  0  0  0  0  0  0  0
    0.8666    3.3364   -1.4760 H   0  0  0  0  0  0  0  0  0  0  0  0
  1 17  1  0  0  0  0
  2  1  1  0  0  0  0
  3  2  2  0  0  0  0
  3 18  1  0  0  0  0
  4  3  1  0  0  0  0
  4 19  1  0  0  0  0
  5  4  2  0  0  0  0
  6  5  1  0  0  0  0
  6 20  1  0  0  0  0
  7  5  1  0  0  0  0
  8  7  2  0  0  0  0
  8  2  1  0  0  0  0
  9  8  1  0  0  0  0
 10  9  2  0  0  0  0
 11  9  1  0  0  0  0
 12 11  1  0  0  0  0
 13 11  2  0  0  0  0
 14 13  1  0  0  0  0
 15 13  1  0  0  0  0
 15  7  1  0  0  0  0
 16 15  2  0  0  0  0
M  END
>  <energy>
38.804203227806987

$$$$
