>506.sdf
 OpenBabel10062214523D

 54 56  0  0  0  0  0  0  0  0999 V2000
    2.0760    5.3353   -0.9642 C   0  0  0  0  0  0  0  0  0  0  0  0
    1.8768    4.1410   -0.3027 O   0  0  0  0  0  0  0  0  0  0  0  0
    2.4724    2.9774   -0.6737 C   0  0  0  0  0  0  0  0  0  0  0  0
    3.2324    2.9565   -1.6328 O   0  0  0  0  0  0  0  0  0  0  0  0
    2.2140    1.7275    0.0934 C   0  0  0  0  0  0  0  0  0  0  0  0
    1.4464    1.7532    1.2177 C   0  0  0  0  0  0  0  0  0  0  0  0
    1.2705    0.6330    1.9897 O   0  0  0  0  0  0  0  0  0  0  0  0
    2.0025   -0.5392    1.8024 C   0  0  1  0  0  0  0  0  0  0  0  0
    1.4873   -1.6551    2.5124 O   0  0  0  0  0  0  0  0  0  0  0  0
    0.0735   -1.7677    2.5861 C   0  0  1  0  0  0  0  0  0  0  0  0
   -0.3458   -2.7473    1.6463 O   0  0  0  0  0  0  0  0  0  0  0  0
   -1.7466   -2.9794    1.7164 C   0  0  1  0  0  0  0  0  0  0  0  0
   -2.1460   -3.9297    0.5782 C   0  0  0  0  0  0  0  0  0  0  0  0
   -1.4819   -5.1611    0.6885 O   0  0  0  0  0  0  0  0  0  0  0  0
   -2.1244   -3.5617    3.1015 C   0  0  2  0  0  0  0  0  0  0  0  0
   -3.4939   -3.8721    3.1862 O   0  0  0  0  0  0  0  0  0  0  0  0
   -1.7280   -2.5489    4.1839 C   0  0  1  0  0  0  0  0  0  0  0  0
   -1.9857   -3.0916    5.4537 O   0  0  0  0  0  0  0  0  0  0  0  0
   -0.2380   -2.2257    4.0312 C   0  0  2  0  0  0  0  0  0  0  0  0
    0.1164   -1.2232    4.9493 O   0  0  0  0  0  0  0  0  0  0  0  0
    2.1377   -0.7822    0.3026 C   0  0  2  0  0  0  0  0  0  0  0  0
    2.9549   -1.9668   -0.2313 C   0  0  1  0  0  0  0  0  0  0  0  0
    2.2000   -3.2992   -0.2402 C   0  0  0  0  0  0  0  0  0  0  0  0
    3.4458   -1.4690   -1.6275 C   0  0  1  0  0  0  0  0  0  0  0  0
    3.0839   -2.2992   -2.7010 O   0  0  0  0  0  0  0  0  0  0  0  0
    2.9138   -0.0116   -1.7722 C   0  0  1  0  0  0  0  0  0  0  0  0
    1.6140    0.0810   -2.3256 O   0  0  0  0  0  0  0  0  0  0  0  0
    2.8773    0.4171   -0.3029 C   0  0  1  0  0  0  0  0  0  0  0  0
    1.7523    5.2455   -2.0236 H   0  0  0  0  0  0  0  0  0  0  0  0
    1.4759    6.1287   -0.4741 H   0  0  0  0  0  0  0  0  0  0  0  0
    3.1490    5.6220   -0.9242 H   0  0  0  0  0  0  0  0  0  0  0  0
    0.9676    2.6752    1.5306 H   0  0  0  0  0  0  0  0  0  0  0  0
    3.0236   -0.3635    2.2078 H   0  0  0  0  0  0  0  0  0  0  0  0
   -0.4631   -0.8111    2.3918 H   0  0  0  0  0  0  0  0  0  0  0  0
   -2.3040   -2.0296    1.5407 H   0  0  0  0  0  0  0  0  0  0  0  0
   -1.9279   -3.4533   -0.4059 H   0  0  0  0  0  0  0  0  0  0  0  0
   -3.2415   -4.1141    0.5954 H   0  0  0  0  0  0  0  0  0  0  0  0
   -0.6435   -5.0852    0.1622 H   0  0  0  0  0  0  0  0  0  0  0  0
   -1.5510   -4.5029    3.2609 H   0  0  0  0  0  0  0  0  0  0  0  0
   -4.0050   -3.0353    3.0330 H   0  0  0  0  0  0  0  0  0  0  0  0
   -2.3321   -1.6222    4.0302 H   0  0  0  0  0  0  0  0  0  0  0  0
   -2.0917   -2.3282    6.0792 H   0  0  0  0  0  0  0  0  0  0  0  0
    0.3316   -3.1617    4.2467 H   0  0  0  0  0  0  0  0  0  0  0  0
    1.1029   -1.2578    5.0520 H   0  0  0  0  0  0  0  0  0  0  0  0
    1.1050   -0.8395   -0.1160 H   0  0  0  0  0  0  0  0  0  0  0  0
    3.8598   -2.0700    0.4120 H   0  0  0  0  0  0  0  0  0  0  0  0
    1.2807   -3.2221   -0.8598 H   0  0  0  0  0  0  0  0  0  0  0  0
    1.9217   -3.5929    0.7910 H   0  0  0  0  0  0  0  0  0  0  0  0
    2.8497   -4.0969   -0.6575 H   0  0  0  0  0  0  0  0  0  0  0  0
    4.5597   -1.4336   -1.5505 H   0  0  0  0  0  0  0  0  0  0  0  0
    3.5887   -1.9710   -3.4901 H   0  0  0  0  0  0  0  0  0  0  0  0
    3.5905    0.5853   -2.4191 H   0  0  0  0  0  0  0  0  0  0  0  0
    1.2208   -0.8196   -2.4505 H   0  0  0  0  0  0  0  0  0  0  0  0
    3.9295    0.4681    0.0689 H   0  0  0  0  0  0  0  0  0  0  0  0
  1 29  1  0  0  0  0
  1 30  1  0  0  0  0
  1 31  1  0  0  0  0
  2  1  1  0  0  0  0
  3  2  1  0  0  0  0
  4  3  2  0  0  0  0
  5  3  1  0  0  0  0
  6  5  2  0  0  0  0
  6 32  1  0  0  0  0
  7  6  1  0  0  0  0
  8  7  1  0  0  0  0
  8 33  1  1  0  0  0
  9  8  1  0  0  0  0
 10  9  1  0  0  0  0
 10 34  1  6  0  0  0
 11 10  1  0  0  0  0
 12 11  1  0  0  0  0
 12 35  1  6  0  0  0
 13 12  1  0  0  0  0
 13 36  1  0  0  0  0
 13 37  1  0  0  0  0
 14 13  1  0  0  0  0
 14 38  1  0  0  0  0
 15 12  1  0  0  0  0
 15 39  1  1  0  0  0
 16 15  1  0  0  0  0
 16 40  1  0  0  0  0
 17 15  1  0  0  0  0
 17 41  1  6  0  0  0
 18 17  1  0  0  0  0
 18 42  1  0  0  0  0
 19 17  1  0  0  0  0
 19 10  1  0  0  0  0
 19 43  1  1  0  0  0
 20 19  1  0  0  0  0
 20 44  1  0  0  0  0
 21  8  1  0  0  0  0
 21 45  1  6  0  0  0
 22 21  1  0  0  0  0
 22 46  1  1  0  0  0
 23 22  1  0  0  0  0
 23 47  1  0  0  0  0
 23 48  1  0  0  0  0
 23 49  1  0  0  0  0
 24 22  1  0  0  0  0
 24 50  1  1  0  0  0
 25 24  1  0  0  0  0
 25 51  1  0  0  0  0
 26 24  1  0  0  0  0
 26 52  1  6  0  0  0
 27 26  1  0  0  0  0
 27 53  1  0  0  0  0
 28 26  1  0  0  0  0
 28  5  1  0  0  0  0
 28 21  1  0  0  0  0
 28 54  1  1  0  0  0
M  END
>  <MOL Chiral Flag>
0

>  <energy>
129.93836130335944

$$$$
