>519.sdf
 OpenBabel10062215023D

 19 18  0  0  0  0  0  0  0  0999 V2000
   -3.5260   -0.6238   -2.5628 C   0  0  0  0  0  0  0  0  0  0  0  0
   -2.2052   -0.5100   -2.3984 C   0  0  0  0  0  0  0  0  0  0  0  0
   -1.5827   -0.3223   -1.0410 C   0  0  0  0  0  0  0  0  0  0  0  0
   -0.2838   -1.5819   -0.7674 S   0  0  0  0  0  0  0  0  0  0  0  0
    0.1420   -1.1035    1.2919 S   0  0  2  0  0  0  0  0  0  0  0  0
    0.1553    0.4157    1.0600 O   0  0  0  0  0  0  0  0  0  0  0  0
    1.9619   -1.1872    1.0835 C   0  0  0  0  0  0  0  0  0  0  0  0
    2.6449   -0.5273    2.2532 C   0  0  0  0  0  0  0  0  0  0  0  0
    3.4519    0.5274    2.0919 C   0  0  0  0  0  0  0  0  0  0  0  0
   -3.9403   -0.7389   -3.5606 H   0  0  0  0  0  0  0  0  0  0  0  0
   -4.2049   -0.5852   -1.7156 H   0  0  0  0  0  0  0  0  0  0  0  0
   -1.5613   -0.5288   -3.2737 H   0  0  0  0  0  0  0  0  0  0  0  0
   -2.3539   -0.3847   -0.2420 H   0  0  0  0  0  0  0  0  0  0  0  0
   -1.1097    0.6795   -1.0484 H   0  0  0  0  0  0  0  0  0  0  0  0
    2.2780   -2.2511    1.0528 H   0  0  0  0  0  0  0  0  0  0  0  0
    2.2618   -0.7095    0.1244 H   0  0  0  0  0  0  0  0  0  0  0  0
    2.4755   -0.9155    3.2533 H   0  0  0  0  0  0  0  0  0  0  0  0
    3.6402    0.9439    1.1070 H   0  0  0  0  0  0  0  0  0  0  0  0
    3.9276    0.9843    2.9543 H   0  0  0  0  0  0  0  0  0  0  0  0
  1 10  1  0  0  0  0
  1 11  1  0  0  0  0
  2  1  2  0  0  0  0
  2 12  1  0  0  0  0
  3  2  1  0  0  0  0
  3 13  1  0  0  0  0
  3 14  1  0  0  0  0
  4  3  1  0  0  0  0
  5  4  1  6  0  0  0
  6  5  2  0  0  0  0
  7  5  1  0  0  0  0
  7 15  1  0  0  0  0
  7 16  1  0  0  0  0
  8  7  1  0  0  0  0
  8 17  1  0  0  0  0
  9  8  2  0  0  0  0
  9 18  1  0  0  0  0
  9 19  1  0  0  0  0
M  END
>  <MOL Chiral Flag>
0

>  <energy>
31.997000218686519

$$$$
