>522.sdf
 OpenBabel10062215033D

 39 41  0  0  0  0  0  0  0  0999 V2000
    2.4823   -2.8156    3.1601 C   0  0  0  0  0  0  0  0  0  0  0  0
    2.8259   -2.3538    1.7793 C   0  0  0  0  0  0  0  0  0  0  0  0
    4.1259   -2.2287    1.4160 N   0  0  0  0  0  0  0  0  0  0  0  0
    4.4915   -1.8012    0.1810 C   0  0  0  0  0  0  0  0  0  0  0  0
    3.5055   -1.4677   -0.7867 C   0  0  0  0  0  0  0  0  0  0  0  0
    3.9427   -1.0180   -2.0586 C   0  0  0  0  0  0  0  0  0  0  0  0
    5.3064   -0.9071   -2.3423 C   0  0  0  0  0  0  0  0  0  0  0  0
    6.2571   -1.2382   -1.3800 C   0  0  0  0  0  0  0  0  0  0  0  0
    5.8526   -1.6845   -0.1236 C   0  0  0  0  0  0  0  0  0  0  0  0
    2.1273   -1.5922   -0.4290 C   0  0  0  0  0  0  0  0  0  0  0  0
    1.0744   -1.2512   -1.3467 N   0  0  0  0  0  0  0  0  0  0  0  0
   -0.3346   -1.2886   -0.9723 C   0  0  0  0  0  0  0  0  0  0  0  0
   -1.2591   -0.7652   -2.0563 C   0  0  0  0  0  0  0  0  0  0  0  0
   -0.7920   -0.4021   -3.1216 O   0  0  0  0  0  0  0  0  0  0  0  0
   -2.6035   -0.6969   -1.8047 N   0  0  0  0  0  0  0  0  0  0  0  0
   -3.6337   -0.1709   -2.6755 C   0  0  0  0  0  0  0  0  0  0  0  0
   -3.3585    0.4346   -3.9325 C   0  0  0  0  0  0  0  0  0  0  0  0
   -4.3909    0.9432   -4.7230 C   0  0  0  0  0  0  0  0  0  0  0  0
   -5.7119    0.8674   -4.2941 C   0  0  0  0  0  0  0  0  0  0  0  0
   -6.9977    1.5154   -5.2961 Cl  0  0  0  0  0  0  0  0  0  0  0  0
   -6.0106    0.2803   -3.0674 C   0  0  0  0  0  0  0  0  0  0  0  0
   -4.9918   -0.2356   -2.2576 C   0  0  0  0  0  0  0  0  0  0  0  0
   -5.4644   -0.9570   -0.7201 Cl  0  0  0  0  0  0  0  0  0  0  0  0
    1.8121   -2.0420    0.8710 C   0  0  0  0  0  0  0  0  0  0  0  0
    1.8826   -3.7483    3.1085 H   0  0  0  0  0  0  0  0  0  0  0  0
    3.4038   -3.0145    3.7475 H   0  0  0  0  0  0  0  0  0  0  0  0
    1.8935   -2.0302    3.6797 H   0  0  0  0  0  0  0  0  0  0  0  0
    3.2635   -0.7445   -2.8459 H   0  0  0  0  0  0  0  0  0  0  0  0
    5.6264   -0.5596   -3.3164 H   0  0  0  0  0  0  0  0  0  0  0  0
    7.3110   -1.1468   -1.6086 H   0  0  0  0  0  0  0  0  0  0  0  0
    6.5997   -1.9372    0.6187 H   0  0  0  0  0  0  0  0  0  0  0  0
    1.3123   -0.9305   -2.2882 H   0  0  0  0  0  0  0  0  0  0  0  0
   -0.4830   -0.6392   -0.0828 H   0  0  0  0  0  0  0  0  0  0  0  0
   -0.6257   -2.3315   -0.7207 H   0  0  0  0  0  0  0  0  0  0  0  0
   -2.9000   -1.0467   -0.8832 H   0  0  0  0  0  0  0  0  0  0  0  0
   -2.3706    0.5429   -4.3314 H   0  0  0  0  0  0  0  0  0  0  0  0
   -4.1576    1.4034   -5.6752 H   0  0  0  0  0  0  0  0  0  0  0  0
   -7.0406    0.2259   -2.7376 H   0  0  0  0  0  0  0  0  0  0  0  0
    0.7849   -2.1491    1.1908 H   0  0  0  0  0  0  0  0  0  0  0  0
  1 25  1  0  0  0  0
  1 26  1  0  0  0  0
  1 27  1  0  0  0  0
  2  1  1  0  0  0  0
  3  2  2  0  0  0  0
  4  3  1  0  0  0  0
  5  4  2  0  0  0  0
  6  5  1  0  0  0  0
  6 28  1  0  0  0  0
  7  6  2  0  0  0  0
  7 29  1  0  0  0  0
  8  7  1  0  0  0  0
  8 30  1  0  0  0  0
  9  8  2  0  0  0  0
  9  4  1  0  0  0  0
  9 31  1  0  0  0  0
 10  5  1  0  0  0  0
 11 10  1  0  0  0  0
 11 32  1  0  0  0  0
 12 11  1  0  0  0  0
 12 33  1  0  0  0  0
 12 34  1  0  0  0  0
 13 12  1  0  0  0  0
 14 13  2  0  0  0  0
 15 13  1  0  0  0  0
 15 35  1  0  0  0  0
 16 15  1  0  0  0  0
 17 16  2  0  0  0  0
 17 36  1  0  0  0  0
 18 17  1  0  0  0  0
 18 37  1  0  0  0  0
 19 18  2  0  0  0  0
 20 19  1  0  0  0  0
 21 19  1  0  0  0  0
 21 38  1  0  0  0  0
 22 21  2  0  0  0  0
 22 16  1  0  0  0  0
 23 22  1  0  0  0  0
 24 10  2  0  0  0  0
 24  2  1  0  0  0  0
 24 39  1  0  0  0  0
M  END
>  <MOL Chiral Flag>
0

>  <energy>
89.19518024088741

$$$$
