>527.sdf
 OpenBabel10062215053D

 48 52  0  0  0  0  0  0  0  0999 V2000
    6.8850   -0.2626    1.1851 C   0  0  0  0  0  0  0  0  0  0  0  0
    5.8631   -1.1203    0.4156 C   0  0  0  0  0  0  0  0  0  0  0  0
    6.2288   -1.1390   -1.0697 C   0  0  0  0  0  0  0  0  0  0  0  0
    4.4460   -0.6278    0.6421 C   0  0  0  0  0  0  0  0  0  0  0  0
    3.2546   -1.1591    0.1648 C   0  0  0  0  0  0  0  0  0  0  0  0
    2.9690   -2.2080   -0.6447 N   0  0  0  0  0  0  0  0  0  0  0  0
    1.6456   -2.4681   -0.9266 C   0  0  0  0  0  0  0  0  0  0  0  0
    0.6395   -1.6917   -0.3798 N   0  0  0  0  0  0  0  0  0  0  0  0
    0.9445   -0.6509    0.4542 C   0  0  0  0  0  0  0  0  0  0  0  0
   -0.0226    0.1504    1.1288 N   0  0  0  0  0  0  0  0  0  0  0  0
   -1.4294    0.3930    0.8404 C   0  0  1  0  0  0  0  0  0  0  0  0
   -1.5458    1.9282    0.6307 C   0  0  0  0  0  0  0  0  0  0  0  0
   -3.0098    2.3495    0.4676 C   0  0  2  0  0  0  0  0  0  0  0  0
   -3.7950    1.9446    1.7340 C   0  0  0  0  0  0  0  0  0  0  0  0
   -3.7294    0.4112    1.9135 C   0  0  1  0  0  0  0  0  0  0  0  0
   -4.3263   -0.2813    0.6709 C   0  0  0  0  0  0  0  0  0  0  0  0
   -3.5110    0.1132   -0.5827 C   0  0  1  0  0  0  0  0  0  0  0  0
   -3.5984    1.6464   -0.7699 C   0  0  0  0  0  0  0  0  0  0  0  0
   -2.0233   -0.3212   -0.4085 C   0  0  0  0  0  0  0  0  0  0  0  0
   -2.2586   -0.0202    2.0856 C   0  0  0  0  0  0  0  0  0  0  0  0
    2.2791   -0.3971    0.7012 C   0  0  0  0  0  0  0  0  0  0  0  0
    2.8074    0.5754    1.4590 N   0  0  0  0  0  0  0  0  0  0  0  0
    4.1247    0.4402    1.4176 N   0  0  0  0  0  0  0  0  0  0  0  0
    7.9115   -0.6640    1.0604 H   0  0  0  0  0  0  0  0  0  0  0  0
    6.6532   -0.2661    2.2727 H   0  0  0  0  0  0  0  0  0  0  0  0
    6.8720    0.7884    0.8190 H   0  0  0  0  0  0  0  0  0  0  0  0
    5.9264   -2.1576    0.8087 H   0  0  0  0  0  0  0  0  0  0  0  0
    7.2638   -1.5271   -1.1935 H   0  0  0  0  0  0  0  0  0  0  0  0
    6.1778   -0.1169   -1.5017 H   0  0  0  0  0  0  0  0  0  0  0  0
    5.5451   -1.8085   -1.6303 H   0  0  0  0  0  0  0  0  0  0  0  0
    1.3924   -3.2993   -1.5721 H   0  0  0  0  0  0  0  0  0  0  0  0
    0.3466    0.7071    1.9152 H   0  0  0  0  0  0  0  0  0  0  0  0
   -1.1187    2.4666    1.5066 H   0  0  0  0  0  0  0  0  0  0  0  0
   -0.9568    2.2317   -0.2640 H   0  0  0  0  0  0  0  0  0  0  0  0
   -3.0593    3.4523    0.3351 H   0  0  0  0  0  0  0  0  0  0  0  0
   -4.8519    2.2744    1.6437 H   0  0  0  0  0  0  0  0  0  0  0  0
   -3.3610    2.4490    2.6273 H   0  0  0  0  0  0  0  0  0  0  0  0
   -4.3071    0.1212    2.8181 H   0  0  0  0  0  0  0  0  0  0  0  0
   -4.3078   -1.3840    0.8055 H   0  0  0  0  0  0  0  0  0  0  0  0
   -5.3894    0.0260    0.5484 H   0  0  0  0  0  0  0  0  0  0  0  0
   -3.9470   -0.3860   -1.4749 H   0  0  0  0  0  0  0  0  0  0  0  0
   -4.6570    1.9604   -0.9047 H   0  0  0  0  0  0  0  0  0  0  0  0
   -3.0376    1.9515   -1.6804 H   0  0  0  0  0  0  0  0  0  0  0  0
   -1.9795   -1.4258   -0.2893 H   0  0  0  0  0  0  0  0  0  0  0  0
   -1.4521   -0.0464   -1.3220 H   0  0  0  0  0  0  0  0  0  0  0  0
   -2.1976   -1.1218    2.2353 H   0  0  0  0  0  0  0  0  0  0  0  0
   -1.8462    0.4642    2.9980 H   0  0  0  0  0  0  0  0  0  0  0  0
    4.7707    1.0756    1.9319 H   0  0  0  0  0  0  0  0  0  0  0  0
  1 24  1  0  0  0  0
  1 25  1  0  0  0  0
  1 26  1  0  0  0  0
  2  1  1  0  0  0  0
  2 27  1  0  0  0  0
  3  2  1  0  0  0  0
  3 28  1  0  0  0  0
  3 29  1  0  0  0  0
  3 30  1  0  0  0  0
  4  2  1  0  0  0  0
  5  4  2  0  0  0  0
  6  5  1  0  0  0  0
  7  6  2  0  0  0  0
  7 31  1  0  0  0  0
  8  7  1  0  0  0  0
  9  8  2  0  0  0  0
 10  9  1  0  0  0  0
 10 32  1  0  0  0  0
 11 10  1  1  0  0  0
 12 11  1  0  0  0  0
 12 33  1  0  0  0  0
 12 34  1  0  0  0  0
 13 12  1  0  0  0  0
 13 35  1  6  0  0  0
 14 13  1  0  0  0  0
 14 36  1  0  0  0  0
 14 37  1  0  0  0  0
 15 14  1  0  0  0  0
 15 38  1  1  0  0  0
 16 15  1  0  0  0  0
 16 39  1  0  0  0  0
 16 40  1  0  0  0  0
 17 16  1  0  0  0  0
 17 41  1  6  0  0  0
 18 17  1  0  0  0  0
 18 13  1  0  0  0  0
 18 42  1  0  0  0  0
 18 43  1  0  0  0  0
 19 17  1  0  0  0  0
 19 11  1  0  0  0  0
 19 44  1  0  0  0  0
 19 45  1  0  0  0  0
 20 15  1  0  0  0  0
 20 11  1  0  0  0  0
 20 46  1  0  0  0  0
 20 47  1  0  0  0  0
 21  9  1  0  0  0  0
 21  5  1  0  0  0  0
 22 21  2  0  0  0  0
 23 22  1  0  0  0  0
 23  4  1  0  0  0  0
 23 48  1  0  0  0  0
M  END
>  <MOL Chiral Flag>
0

>  <energy>
51.911386332661834

$$$$
