>528.sdf
 OpenBabel10062215053D

 34 36  0  0  0  0  0  0  0  0999 V2000
    4.3086    0.2361    1.1381 C   0  0  0  0  0  0  0  0  0  0  0  0
    3.9731   -1.1843    0.6693 C   0  0  0  0  0  0  0  0  0  0  0  0
    4.5317   -1.4529   -0.7278 C   0  0  0  0  0  0  0  0  0  0  0  0
    2.4858   -1.4149    0.7113 C   0  0  0  0  0  0  0  0  0  0  0  0
    1.4868   -0.7443    0.0378 C   0  0  0  0  0  0  0  0  0  0  0  0
    1.5239    0.2841   -0.8421 N   0  0  0  0  0  0  0  0  0  0  0  0
    0.3314    0.7790   -1.3012 C   0  0  0  0  0  0  0  0  0  0  0  0
   -0.8609    0.2578   -0.8523 N   0  0  0  0  0  0  0  0  0  0  0  0
   -0.8942   -0.7842    0.0332 C   0  0  0  0  0  0  0  0  0  0  0  0
   -2.1057   -1.3178    0.5734 N   0  0  0  0  0  0  0  0  0  0  0  0
   -3.3690   -0.6471    0.6916 C   0  0  0  0  0  0  0  0  0  0  0  0
   -4.3377   -1.2295    1.5322 C   0  0  0  0  0  0  0  0  0  0  0  0
   -5.5608   -0.6010    1.7643 C   0  0  0  0  0  0  0  0  0  0  0  0
   -5.8462    0.6177    1.1529 C   0  0  0  0  0  0  0  0  0  0  0  0
   -7.0299    1.2337    1.3914 F   0  0  0  0  0  0  0  0  0  0  0  0
   -4.9097    1.2056    0.3010 C   0  0  0  0  0  0  0  0  0  0  0  0
   -3.6757    0.5858    0.0675 C   0  0  0  0  0  0  0  0  0  0  0  0
    0.3237   -1.2901    0.4610 C   0  0  0  0  0  0  0  0  0  0  0  0
    0.5723   -2.2711    1.3480 N   0  0  0  0  0  0  0  0  0  0  0  0
    1.8909   -2.3460    1.4944 N   0  0  0  0  0  0  0  0  0  0  0  0
    5.4097    0.3795    1.1654 H   0  0  0  0  0  0  0  0  0  0  0  0
    3.9125    0.4033    2.1633 H   0  0  0  0  0  0  0  0  0  0  0  0
    3.8688    0.9965    0.4584 H   0  0  0  0  0  0  0  0  0  0  0  0
    4.4555   -1.8979    1.3733 H   0  0  0  0  0  0  0  0  0  0  0  0
    5.6356   -1.3282   -0.7222 H   0  0  0  0  0  0  0  0  0  0  0  0
    4.3014   -2.4968   -1.0307 H   0  0  0  0  0  0  0  0  0  0  0  0
    4.0953   -0.7549   -1.4727 H   0  0  0  0  0  0  0  0  0  0  0  0
    0.3269    1.5991   -2.0067 H   0  0  0  0  0  0  0  0  0  0  0  0
   -2.0107   -2.1959    1.1068 H   0  0  0  0  0  0  0  0  0  0  0  0
   -4.1291   -2.1678    2.0318 H   0  0  0  0  0  0  0  0  0  0  0  0
   -6.2818   -1.0573    2.4303 H   0  0  0  0  0  0  0  0  0  0  0  0
   -5.1347    2.1527   -0.1723 H   0  0  0  0  0  0  0  0  0  0  0  0
   -2.9932    1.0915   -0.5865 H   0  0  0  0  0  0  0  0  0  0  0  0
    2.3690   -3.0146    2.1376 H   0  0  0  0  0  0  0  0  0  0  0  0
  1 21  1  0  0  0  0
  1 22  1  0  0  0  0
  1 23  1  0  0  0  0
  2  1  1  0  0  0  0
  2 24  1  0  0  0  0
  3  2  1  0  0  0  0
  3 25  1  0  0  0  0
  3 26  1  0  0  0  0
  3 27  1  0  0  0  0
  4  2  1  0  0  0  0
  5  4  2  0  0  0  0
  6  5  1  0  0  0  0
  7  6  2  0  0  0  0
  7 28  1  0  0  0  0
  8  7  1  0  0  0  0
  9  8  2  0  0  0  0
 10  9  1  0  0  0  0
 10 29  1  0  0  0  0
 11 10  1  0  0  0  0
 12 11  2  0  0  0  0
 12 30  1  0  0  0  0
 13 12  1  0  0  0  0
 13 31  1  0  0  0  0
 14 13  2  0  0  0  0
 15 14  1  0  0  0  0
 16 14  1  0  0  0  0
 16 32  1  0  0  0  0
 17 16  2  0  0  0  0
 17 11  1  0  0  0  0
 17 33  1  0  0  0  0
 18  9  1  0  0  0  0
 18  5  1  0  0  0  0
 19 18  2  0  0  0  0
 20 19  1  0  0  0  0
 20  4  1  0  0  0  0
 20 34  1  0  0  0  0
M  END
>  <MOL Chiral Flag>
0

>  <energy>
37.305187144968095

$$$$
