>532.sdf
 OpenBabel10062215073D

 55 58  0  0  0  0  0  0  0  0999 V2000
  -10.0984    2.1166    3.8314 C   0  0  0  0  0  0  0  0  0  0  0  0
   -8.7396    2.0138    3.1399 C   0  0  0  0  0  0  0  0  0  0  0  0
   -8.0758    0.6653    3.4426 C   0  0  0  0  0  0  0  0  0  0  0  0
   -6.8212    0.5047    2.7224 N   0  0  0  0  0  0  0  0  0  0  0  0
   -6.0466   -0.7115    2.7921 C   0  0  0  0  0  0  0  0  0  0  0  0
   -6.4130   -1.6542    3.6095 N   0  0  0  0  0  0  0  0  0  0  0  0
   -4.8301   -0.9015    1.8938 C   0  0  0  0  0  0  0  0  0  0  0  0
   -4.2475    0.1819    1.1995 C   0  0  0  0  0  0  0  0  0  0  0  0
   -3.1573   -0.0093    0.3402 C   0  0  0  0  0  0  0  0  0  0  0  0
   -2.6013   -1.2919    0.1394 C   0  0  0  0  0  0  0  0  0  0  0  0
   -3.1719   -2.3683    0.8444 C   0  0  0  0  0  0  0  0  0  0  0  0
   -4.2589   -2.1800    1.6986 C   0  0  0  0  0  0  0  0  0  0  0  0
   -1.5093   -1.5103   -0.7878 N   0  0  0  0  0  0  0  0  0  0  0  0
   -1.2687   -0.6171   -1.9215 C   0  0  0  0  0  0  0  0  0  0  0  0
    0.1751   -0.1257   -1.8798 C   0  0  0  0  0  0  0  0  0  0  0  0
    1.0490   -1.2858   -1.7883 N   0  0  0  0  0  0  0  0  0  0  0  0
    0.8457   -2.1799   -0.6579 C   0  0  0  0  0  0  0  0  0  0  0  0
   -0.6139   -2.6675   -0.6857 C   0  0  0  0  0  0  0  0  0  0  0  0
    2.0071   -1.5606   -2.8137 C   0  0  0  0  0  0  0  0  0  0  0  0
    2.0508   -0.9029   -4.0052 N   0  0  0  0  0  0  0  0  0  0  0  0
    3.0157   -1.3470   -4.8357 N   0  0  0  0  0  0  0  0  0  0  0  0
    3.7666   -2.3553   -4.3160 C   0  0  0  0  0  0  0  0  0  0  0  0
    3.2033   -2.7075   -2.7996 S   0  0  0  0  0  0  0  0  0  0  0  0
    4.8866   -2.9809   -5.0270 C   0  0  0  0  0  0  0  0  0  0  0  0
    5.7905   -3.8957   -4.5142 C   0  0  0  0  0  0  0  0  0  0  0  0
    6.6604   -4.1878   -5.5451 C   0  0  0  0  0  0  0  0  0  0  0  0
    6.2269   -3.4397   -6.6220 C   0  0  0  0  0  0  0  0  0  0  0  0
    5.1769   -2.7283   -6.2838 O   0  0  0  0  0  0  0  0  0  0  0  0
    6.8058   -3.4281   -7.9148 N   0  3  0  0  0  0  0  0  0  0  0  0
    7.8623   -4.1678   -8.1758 O   0  5  0  0  0  0  0  0  0  0  0  0
    6.3221   -2.7628   -8.7791 O   0  0  0  0  0  0  0  0  0  0  0  0
  -10.7758    1.3148    3.4651 H   0  0  0  0  0  0  0  0  0  0  0  0
   -9.9853    2.0189    4.9321 H   0  0  0  0  0  0  0  0  0  0  0  0
  -10.5629    3.0991    3.6051 H   0  0  0  0  0  0  0  0  0  0  0  0
   -8.0826    2.8390    3.4910 H   0  0  0  0  0  0  0  0  0  0  0  0
   -8.8937    2.1184    2.0440 H   0  0  0  0  0  0  0  0  0  0  0  0
   -8.7698   -0.1450    3.1269 H   0  0  0  0  0  0  0  0  0  0  0  0
   -7.8945    0.5957    4.5375 H   0  0  0  0  0  0  0  0  0  0  0  0
   -6.5343    1.2636    2.0935 H   0  0  0  0  0  0  0  0  0  0  0  0
   -7.2350   -1.5525    4.2173 H   0  0  0  0  0  0  0  0  0  0  0  0
   -4.6141    1.1886    1.3090 H   0  0  0  0  0  0  0  0  0  0  0  0
   -2.7537    0.8623   -0.1509 H   0  0  0  0  0  0  0  0  0  0  0  0
   -2.8163   -3.3778    0.7142 H   0  0  0  0  0  0  0  0  0  0  0  0
   -4.6565   -3.0625    2.1686 H   0  0  0  0  0  0  0  0  0  0  0  0
   -1.9661    0.2364   -1.9878 H   0  0  0  0  0  0  0  0  0  0  0  0
   -1.4056   -1.1989   -2.8593 H   0  0  0  0  0  0  0  0  0  0  0  0
    0.3256    0.5143   -0.9831 H   0  0  0  0  0  0  0  0  0  0  0  0
    0.3844    0.4924   -2.7783 H   0  0  0  0  0  0  0  0  0  0  0  0
    1.5269   -3.0562   -0.6768 H   0  0  0  0  0  0  0  0  0  0  0  0
    1.0303   -1.6190    0.2840 H   0  0  0  0  0  0  0  0  0  0  0  0
   -0.7560   -3.3067   -1.5845 H   0  0  0  0  0  0  0  0  0  0  0  0
   -0.7797   -3.2863    0.2154 H   0  0  0  0  0  0  0  0  0  0  0  0
    5.8210   -4.2958   -3.5094 H   0  0  0  0  0  0  0  0  0  0  0  0
    7.5043   -4.8645   -5.5137 H   0  0  0  0  0  0  0  0  0  0  0  0
   -5.8949   -2.5320    3.7087 H   0  0  0  0  0  0  0  0  0  0  0  0
  1 32  1  0  0  0  0
  1 33  1  0  0  0  0
  1 34  1  0  0  0  0
  2  1  1  0  0  0  0
  2 35  1  0  0  0  0
  2 36  1  0  0  0  0
  3  2  1  0  0  0  0
  3 37  1  0  0  0  0
  3 38  1  0  0  0  0
  4  3  1  0  0  0  0
  4 39  1  0  0  0  0
  5  4  1  0  0  0  0
  6  5  2  0  0  0  0
  6 40  1  0  0  0  0
  6 55  1  0  0  0  0
  7  5  1  0  0  0  0
  8  7  2  0  0  0  0
  8 41  1  0  0  0  0
  9  8  1  0  0  0  0
  9 42  1  0  0  0  0
 10  9  2  0  0  0  0
 11 10  1  0  0  0  0
 11 43  1  0  0  0  0
 12 11  2  0  0  0  0
 12  7  1  0  0  0  0
 12 44  1  0  0  0  0
 13 10  1  0  0  0  0
 14 13  1  0  0  0  0
 14 45  1  0  0  0  0
 14 46  1  0  0  0  0
 15 14  1  0  0  0  0
 15 47  1  0  0  0  0
 15 48  1  0  0  0  0
 16 15  1  0  0  0  0
 17 16  1  0  0  0  0
 17 49  1  0  0  0  0
 17 50  1  0  0  0  0
 18 17  1  0  0  0  0
 18 13  1  0  0  0  0
 18 51  1  0  0  0  0
 18 52  1  0  0  0  0
 19 16  1  0  0  0  0
 20 19  2  0  0  0  0
 21 20  1  0  0  0  0
 22 21  2  0  0  0  0
 23 22  1  0  0  0  0
 23 19  1  0  0  0  0
 24 22  1  0  0  0  0
 25 24  2  0  0  0  0
 25 53  1  0  0  0  0
 26 25  1  0  0  0  0
 26 54  1  0  0  0  0
 27 26  2  0  0  0  0
 28 27  1  0  0  0  0
 28 24  1  0  0  0  0
 29 27  1  0  0  0  0
 30 29  1  0  0  0  0
 31 29  2  0  0  0  0
M  CHG  2  29   1  30  -1
M  END
>  <MOL Chiral Flag>
0

>  <energy>
130.21583903719076

$$$$
