>535.sdf
 OpenBabel10062215093D

 41 43  0  0  0  0  0  0  0  0999 V2000
    0.1011    5.9385   -1.5989 Br  0  0  0  0  0  0  0  0  0  0  0  0
   -0.3045    4.2215   -0.9124 C   0  0  0  0  0  0  0  0  0  0  0  0
    0.0540    3.8383    0.3946 C   0  0  0  0  0  0  0  0  0  0  0  0
   -0.2525    2.5496    0.8390 C   0  0  0  0  0  0  0  0  0  0  0  0
   -0.9251    1.6711   -0.0266 C   0  0  0  0  0  0  0  0  0  0  0  0
   -1.2785    2.0739   -1.3141 C   0  0  0  0  0  0  0  0  0  0  0  0
   -0.9725    3.3317   -1.7503 C   0  0  0  0  0  0  0  0  0  0  0  0
   -1.3532    0.3452    0.3777 C   0  0  0  0  0  0  0  0  0  0  0  0
   -0.6034   -0.5375    1.0797 C   0  0  0  0  0  0  0  0  0  0  0  0
   -1.0718   -1.7720    1.3104 O   0  0  0  0  0  0  0  0  0  0  0  0
   -2.2036   -2.2513    0.7642 C   0  0  0  0  0  0  0  0  0  0  0  0
   -2.2869   -3.7382    0.5769 C   0  0  0  0  0  0  0  0  0  0  0  0
   -1.7768   -3.9770   -0.7826 C   0  0  0  0  0  0  0  0  0  0  0  0
   -1.3588   -4.0859   -1.8571 N   0  0  0  0  0  0  0  0  0  0  0  0
   -3.1438   -1.3964    0.3097 C   0  0  0  0  0  0  0  0  0  0  0  0
   -2.8337    0.0692    0.2706 C   0  0  0  0  0  0  0  0  0  0  0  0
   -4.4531   -1.8716   -0.0345 C   0  0  0  0  0  0  0  0  0  0  0  0
   -5.5155   -2.2900   -0.2092 N   0  0  0  0  0  0  0  0  0  0  0  0
    0.7366   -0.2727    1.5825 C   0  0  0  0  0  0  0  0  0  0  0  0
    0.9061   -0.2757    2.7894 O   0  0  0  0  0  0  0  0  0  0  0  0
    1.8751   -0.1575    0.6863 C   0  0  0  0  0  0  0  0  0  0  0  0
    1.7625   -0.6458   -0.6170 C   0  0  0  0  0  0  0  0  0  0  0  0
    2.8058   -0.4993   -1.5074 C   0  0  0  0  0  0  0  0  0  0  0  0
    3.9887    0.1468   -1.1089 C   0  0  0  0  0  0  0  0  0  0  0  0
    4.1206    0.5859    0.2253 C   0  0  0  0  0  0  0  0  0  0  0  0
    3.0725    0.4204    1.1241 C   0  0  0  0  0  0  0  0  0  0  0  0
    5.0328    0.3669   -2.0487 N   0  0  0  0  0  0  0  0  0  0  0  0
    4.8918    0.0459   -3.1902 O   0  0  0  0  0  0  0  0  0  0  0  0
    6.0276    0.9381   -1.7195 O   0  0  0  0  0  0  0  0  0  0  0  0
    0.5545    4.5309    1.0635 H   0  0  0  0  0  0  0  0  0  0  0  0
   -0.0070    2.2572    1.8568 H   0  0  0  0  0  0  0  0  0  0  0  0
   -1.7914    1.4053   -1.9968 H   0  0  0  0  0  0  0  0  0  0  0  0
   -1.2707    3.5969   -2.7490 H   0  0  0  0  0  0  0  0  0  0  0  0
   -3.3056   -4.1661    0.6999 H   0  0  0  0  0  0  0  0  0  0  0  0
   -1.5779   -4.2677    1.2333 H   0  0  0  0  0  0  0  0  0  0  0  0
   -3.4447    0.6775   -0.4460 H   0  0  0  0  0  0  0  0  0  0  0  0
   -3.1599    0.5055    1.2375 H   0  0  0  0  0  0  0  0  0  0  0  0
    0.8600   -1.1472   -0.9436 H   0  0  0  0  0  0  0  0  0  0  0  0
    2.6743   -0.8743   -2.5123 H   0  0  0  0  0  0  0  0  0  0  0  0
    5.0226    1.0760    0.5631 H   0  0  0  0  0  0  0  0  0  0  0  0
    3.1804    0.7762    2.1452 H   0  0  0  0  0  0  0  0  0  0  0  0
  2  1  1  0  0  0  0
  3  2  2  0  0  0  0
  3 30  1  0  0  0  0
  4  3  1  0  0  0  0
  4 31  1  0  0  0  0
  5  4  2  0  0  0  0
  6  5  1  0  0  0  0
  6 32  1  0  0  0  0
  7  6  2  0  0  0  0
  7  2  1  0  0  0  0
  7 33  1  0  0  0  0
  8  5  1  0  0  0  0
  9  8  2  0  0  0  0
 10  9  1  0  0  0  0
 11 10  1  0  0  0  0
 12 11  1  0  0  0  0
 12 34  1  0  0  0  0
 12 35  1  0  0  0  0
 13 12  1  0  0  0  0
 14 13  3  0  0  0  0
 15 11  2  0  0  0  0
 16 15  1  0  0  0  0
 16  8  1  0  0  0  0
 16 36  1  0  0  0  0
 16 37  1  0  0  0  0
 17 15  1  0  0  0  0
 18 17  3  0  0  0  0
 19  9  1  0  0  0  0
 20 19  2  0  0  0  0
 21 19  1  0  0  0  0
 22 21  2  0  0  0  0
 22 38  1  0  0  0  0
 23 22  1  0  0  0  0
 23 39  1  0  0  0  0
 24 23  2  0  0  0  0
 25 24  1  0  0  0  0
 25 40  1  0  0  0  0
 26 25  2  0  0  0  0
 26 21  1  0  0  0  0
 26 41  1  0  0  0  0
 27 24  1  0  0  0  0
 28 27  2  0  0  0  0
 29 27  2  0  0  0  0
M  END
>  <MOL Chiral Flag>
0

>  <energy>
135.54318982720855

$$$$
