>537.sdf
 OpenBabel10062215103D

 36 35  0  0  0  0  0  0  0  0999 V2000
   -1.0215   -0.3390   -0.9329 C   0  0  0  0  0  0  0  0  0  0  0  0
   -1.8496    0.9199   -1.1933 C   0  0  0  0  0  0  0  0  0  0  0  0
   -1.7766    1.8491   -0.0570 N   0  0  0  0  0  0  0  0  0  0  0  0
   -2.9283    2.0480    0.8481 C   0  0  0  0  0  0  0  0  0  0  0  0
   -4.1706    1.1810    0.6021 C   0  0  0  0  0  0  0  0  0  0  0  0
   -0.5434    2.5878    0.1816 C   0  0  0  0  0  0  0  0  0  0  0  0
   -0.3808    3.3990    1.3671 S   0  0  0  0  0  0  0  0  0  0  0  0
    0.8632    2.4830   -0.9652 S   0  0  0  0  0  0  0  0  0  0  0  0
    0.9280    4.5734   -1.4438 S   0  0  0  0  0  0  0  0  0  0  0  0
    2.7378    4.7149   -1.4966 C   0  0  0  0  0  0  0  0  0  0  0  0
    3.4151    4.1533   -2.6406 S   0  0  0  0  0  0  0  0  0  0  0  0
    3.4671    5.4089   -0.4502 N   0  0  0  0  0  0  0  0  0  0  0  0
    4.8504    5.8813   -0.6706 C   0  0  0  0  0  0  0  0  0  0  0  0
    4.9254    6.9266   -1.7961 C   0  0  0  0  0  0  0  0  0  0  0  0
    2.7861    5.5912    0.8405 C   0  0  0  0  0  0  0  0  0  0  0  0
    3.6661    5.9979    2.0320 C   0  0  0  0  0  0  0  0  0  0  0  0
   -1.1165   -1.0312   -1.7964 H   0  0  0  0  0  0  0  0  0  0  0  0
    0.0506   -0.1125   -0.7853 H   0  0  0  0  0  0  0  0  0  0  0  0
   -1.4024   -0.8547   -0.0254 H   0  0  0  0  0  0  0  0  0  0  0  0
   -1.5335    1.4323   -2.1263 H   0  0  0  0  0  0  0  0  0  0  0  0
   -2.8744    0.5614   -1.3925 H   0  0  0  0  0  0  0  0  0  0  0  0
   -2.6028    1.8160    1.8855 H   0  0  0  0  0  0  0  0  0  0  0  0
   -3.2432    3.1136    0.8059 H   0  0  0  0  0  0  0  0  0  0  0  0
   -3.9130    0.1023    0.6774 H   0  0  0  0  0  0  0  0  0  0  0  0
   -4.6336    1.4030   -0.3820 H   0  0  0  0  0  0  0  0  0  0  0  0
   -4.9307    1.4028    1.3815 H   0  0  0  0  0  0  0  0  0  0  0  0
    5.5219    5.0282   -0.8989 H   0  0  0  0  0  0  0  0  0  0  0  0
    5.2751    6.3864    0.2136 H   0  0  0  0  0  0  0  0  0  0  0  0
    5.9628    7.3154   -1.8792 H   0  0  0  0  0  0  0  0  0  0  0  0
    4.2440    7.7777   -1.5854 H   0  0  0  0  0  0  0  0  0  0  0  0
    4.6613    6.5029   -2.7839 H   0  0  0  0  0  0  0  0  0  0  0  0
    1.9472    6.3111    0.7266 H   0  0  0  0  0  0  0  0  0  0  0  0
    2.3646    4.6078    1.1377 H   0  0  0  0  0  0  0  0  0  0  0  0
    4.4850    5.2562    2.1666 H   0  0  0  0  0  0  0  0  0  0  0  0
    4.0849    7.0185    1.9183 H   0  0  0  0  0  0  0  0  0  0  0  0
    3.0544    5.9929    2.9592 H   0  0  0  0  0  0  0  0  0  0  0  0
  1 17  1  0  0  0  0
  1 18  1  0  0  0  0
  1 19  1  0  0  0  0
  2  1  1  0  0  0  0
  2 20  1  0  0  0  0
  2 21  1  0  0  0  0
  3  2  1  0  0  0  0
  4  3  1  0  0  0  0
  4 22  1  0  0  0  0
  4 23  1  0  0  0  0
  5  4  1  0  0  0  0
  5 24  1  0  0  0  0
  5 25  1  0  0  0  0
  5 26  1  0  0  0  0
  6  3  1  0  0  0  0
  7  6  2  0  0  0  0
  8  6  1  0  0  0  0
  9  8  1  0  0  0  0
 10  9  1  0  0  0  0
 11 10  2  0  0  0  0
 12 10  1  0  0  0  0
 13 12  1  0  0  0  0
 13 27  1  0  0  0  0
 13 28  1  0  0  0  0
 14 13  1  0  0  0  0
 14 29  1  0  0  0  0
 14 30  1  0  0  0  0
 14 31  1  0  0  0  0
 15 12  1  0  0  0  0
 15 32  1  0  0  0  0
 15 33  1  0  0  0  0
 16 15  1  0  0  0  0
 16 34  1  0  0  0  0
 16 35  1  0  0  0  0
 16 36  1  0  0  0  0
M  END
>  <MOL Chiral Flag>
0

>  <energy>
-1.4150778486367059

$$$$
