>539.sdf
 OpenBabel10062215113D

 46 49  0  0  0  0  0  0  0  0999 V2000
    4.7124    0.9135    7.2037 Cl  0  0  0  0  0  0  0  0  0  0  0  0
    3.9497    1.1675    5.6452 C   0  0  0  0  0  0  0  0  0  0  0  0
    3.0219    0.2384    5.1602 C   0  0  0  0  0  0  0  0  0  0  0  0
    2.4242    0.4266    3.9040 C   0  0  0  0  0  0  0  0  0  0  0  0
    1.4513   -0.6006    3.3894 C   0  0  0  0  0  0  0  0  0  0  0  0
    1.1497   -0.3863    2.0615 O   0  0  0  0  0  0  0  0  0  0  0  0
   -0.0719   -0.1069    1.6766 N   0  0  0  0  0  0  0  0  0  0  0  0
   -0.5011   -0.3079    0.4734 C   0  0  0  0  0  0  0  0  0  0  0  0
    0.3160   -1.0004   -0.6390 C   0  0  2  0  0  0  0  0  0  0  0  0
    1.8478   -1.3423   -0.5179 C   0  0  0  0  0  0  0  0  0  0  0  0
    2.8237   -0.4370   -1.1600 N   0  0  0  0  0  0  0  0  0  0  0  0
    3.4757   -0.7227   -2.3032 C   0  0  0  0  0  0  0  0  0  0  0  0
    4.3721    0.2866   -2.5570 C   0  0  0  0  0  0  0  0  0  0  0  0
    4.2841    1.2048   -1.5754 N   0  0  0  0  0  0  0  0  0  0  0  0
    3.3286    0.7385   -0.7346 C   0  0  0  0  0  0  0  0  0  0  0  0
   -0.0362   -0.3372   -1.9747 C   0  0  0  0  0  0  0  0  0  0  0  0
   -1.5382   -0.4826   -2.2893 C   0  0  0  0  0  0  0  0  0  0  0  0
   -2.4558   -0.1473   -1.1298 C   0  0  0  0  0  0  0  0  0  0  0  0
   -1.9483   -0.0380    0.1903 C   0  0  0  0  0  0  0  0  0  0  0  0
   -2.8353    0.2755    1.2430 C   0  0  0  0  0  0  0  0  0  0  0  0
   -4.1961    0.4602    0.9960 C   0  0  0  0  0  0  0  0  0  0  0  0
   -4.6973    0.3351   -0.2966 C   0  0  0  0  0  0  0  0  0  0  0  0
   -3.8417    0.0298   -1.3589 C   0  0  0  0  0  0  0  0  0  0  0  0
   -4.5338   -0.1168   -2.9725 Cl  0  0  0  0  0  0  0  0  0  0  0  0
    2.7515    1.5696    3.1514 C   0  0  0  0  0  0  0  0  0  0  0  0
    3.6710    2.4971    3.6415 C   0  0  0  0  0  0  0  0  0  0  0  0
    4.2744    2.2951    4.8839 C   0  0  0  0  0  0  0  0  0  0  0  0
    2.7782   -0.6362    5.7518 H   0  0  0  0  0  0  0  0  0  0  0  0
    1.9171   -1.6063    3.4575 H   0  0  0  0  0  0  0  0  0  0  0  0
    0.5393   -0.5990    4.0300 H   0  0  0  0  0  0  0  0  0  0  0  0
   -0.1537   -2.0100   -0.6640 H   0  0  0  0  0  0  0  0  0  0  0  0
    1.9351   -2.2892   -1.0926 H   0  0  0  0  0  0  0  0  0  0  0  0
    2.1914   -1.6536    0.4840 H   0  0  0  0  0  0  0  0  0  0  0  0
    3.3228   -1.6108   -2.9026 H   0  0  0  0  0  0  0  0  0  0  0  0
    5.0579    0.3363   -3.3958 H   0  0  0  0  0  0  0  0  0  0  0  0
    3.0550    1.2358    0.1763 H   0  0  0  0  0  0  0  0  0  0  0  0
    0.2363    0.7405   -1.9096 H   0  0  0  0  0  0  0  0  0  0  0  0
    0.5251   -0.7866   -2.8218 H   0  0  0  0  0  0  0  0  0  0  0  0
   -1.7692   -1.5278   -2.5918 H   0  0  0  0  0  0  0  0  0  0  0  0
   -1.7462    0.1811   -3.1557 H   0  0  0  0  0  0  0  0  0  0  0  0
   -2.4811    0.3544    2.2626 H   0  0  0  0  0  0  0  0  0  0  0  0
   -4.8684    0.6892    1.8138 H   0  0  0  0  0  0  0  0  0  0  0  0
   -5.7573    0.4742   -0.4741 H   0  0  0  0  0  0  0  0  0  0  0  0
    2.2902    1.7512    2.1931 H   0  0  0  0  0  0  0  0  0  0  0  0
    3.9161    3.3727    3.0547 H   0  0  0  0  0  0  0  0  0  0  0  0
    4.9918    3.0151    5.2546 H   0  0  0  0  0  0  0  0  0  0  0  0
  2  1  1  0  0  0  0
  3  2  2  0  0  0  0
  3 28  1  0  0  0  0
  4  3  1  0  0  0  0
  5  4  1  0  0  0  0
  5 29  1  0  0  0  0
  5 30  1  0  0  0  0
  6  5  1  0  0  0  0
  7  6  1  0  0  0  0
  8  7  2  0  0  0  0
  9  8  1  0  0  0  0
  9 31  1  6  0  0  0
 10  9  1  0  0  0  0
 10 32  1  0  0  0  0
 10 33  1  0  0  0  0
 11 10  1  0  0  0  0
 12 11  1  0  0  0  0
 12 34  1  0  0  0  0
 13 12  2  0  0  0  0
 13 35  1  0  0  0  0
 14 13  1  0  0  0  0
 15 14  2  0  0  0  0
 15 11  1  0  0  0  0
 15 36  1  0  0  0  0
 16  9  1  0  0  0  0
 16 37  1  0  0  0  0
 16 38  1  0  0  0  0
 17 16  1  0  0  0  0
 17 39  1  0  0  0  0
 17 40  1  0  0  0  0
 18 17  1  0  0  0  0
 19 18  2  0  0  0  0
 19  8  1  0  0  0  0
 20 19  1  0  0  0  0
 20 41  1  0  0  0  0
 21 20  2  0  0  0  0
 21 42  1  0  0  0  0
 22 21  1  0  0  0  0
 22 43  1  0  0  0  0
 23 22  2  0  0  0  0
 23 18  1  0  0  0  0
 24 23  1  0  0  0  0
 25  4  2  0  0  0  0
 25 44  1  0  0  0  0
 26 25  1  0  0  0  0
 26 45  1  0  0  0  0
 27 26  2  0  0  0  0
 27  2  1  0  0  0  0
 27 46  1  0  0  0  0
M  END
>  <MOL Chiral Flag>
0

>  <energy>
77.810599006638796

$$$$
