>540.sdf
 OpenBabel10062215123D

 60 62  0  0  0  0  0  0  0  0999 V2000
    4.2788   -0.9951   -0.8495 C   0  0  0  0  0  0  0  0  0  0  0  0
    4.0445   -0.8399    0.6594 C   0  0  0  0  0  0  0  0  0  0  0  0
    5.3869   -0.4978    1.3312 C   0  0  0  0  0  0  0  0  0  0  0  0
    2.9006    0.1592    1.0783 C   0  0  1  0  0  0  0  0  0  0  0  0
    2.7282    0.0752    2.4786 O   0  0  0  0  0  0  0  0  0  0  0  0
    3.0378    1.6569    0.6963 C   0  0  0  0  0  0  0  0  0  0  0  0
    2.3771    1.7941   -0.6581 C   0  0  0  0  0  0  0  0  0  0  0  0
    1.1266    0.8760   -0.5971 C   0  0  2  0  0  0  0  0  0  0  0  0
    0.9139    0.3442   -2.0411 C   0  0  0  0  0  0  0  0  0  0  0  0
   -0.1206    1.6437   -0.0506 C   0  0  0  0  0  0  0  0  0  0  0  0
   -1.5192    0.9134   -0.0603 C   0  0  2  0  0  0  0  0  0  0  0  0
   -1.8130    0.5507   -1.3896 O   0  0  0  0  0  0  0  0  0  0  0  0
   -2.6788    1.8302    0.3998 C   0  0  0  0  0  0  0  0  0  0  0  0
   -2.5146    3.0879    0.8590 C   0  0  0  0  0  0  0  0  0  0  0  0
   -4.0746    1.2506    0.3137 C   0  0  0  0  0  0  0  0  0  0  0  0
   -4.1450   -0.0254    1.1516 C   0  0  0  0  0  0  0  0  0  0  0  0
   -3.0362   -1.0219    0.7470 C   0  0  1  0  0  0  0  0  0  0  0  0
   -3.2822   -1.4566   -0.5499 O   0  0  0  0  0  0  0  0  0  0  0  0
   -3.5533   -2.7392   -0.9120 C   0  0  0  0  0  0  0  0  0  0  0  0
   -3.7540   -3.0609   -2.3572 C   0  0  0  0  0  0  0  0  0  0  0  0
   -3.6316   -3.6286   -0.0761 O   0  0  0  0  0  0  0  0  0  0  0  0
   -1.5882   -0.3943    0.8497 C   0  0  2  0  0  0  0  0  0  0  0  0
   -1.3139   -0.0451    2.3495 C   0  0  0  0  0  0  0  0  0  0  0  0
   -0.5713   -1.5081    0.4057 C   0  0  0  0  0  0  0  0  0  0  0  0
    0.8515   -1.2275    0.8149 C   0  0  0  0  0  0  0  0  0  0  0  0
    1.5750   -0.1676    0.4100 C   0  0  0  0  0  0  0  0  0  0  0  0
    3.3510   -1.3210   -1.3551 H   0  0  0  0  0  0  0  0  0  0  0  0
    4.6737   -0.0652   -1.3020 H   0  0  0  0  0  0  0  0  0  0  0  0
    5.0355   -1.7881   -1.0317 H   0  0  0  0  0  0  0  0  0  0  0  0
    3.7417   -1.8452    1.0288 H   0  0  0  0  0  0  0  0  0  0  0  0
    5.2967   -0.4955    2.4362 H   0  0  0  0  0  0  0  0  0  0  0  0
    5.7599    0.4919    0.9949 H   0  0  0  0  0  0  0  0  0  0  0  0
    6.1509   -1.2621    1.0723 H   0  0  0  0  0  0  0  0  0  0  0  0
    3.4089    0.6460    2.9219 H   0  0  0  0  0  0  0  0  0  0  0  0
    4.0581    2.0834    0.7841 H   0  0  0  0  0  0  0  0  0  0  0  0
    2.3883    2.2444    1.3847 H   0  0  0  0  0  0  0  0  0  0  0  0
    2.1740    2.8365   -0.9858 H   0  0  0  0  0  0  0  0  0  0  0  0
    3.1126    1.3940   -1.3778 H   0  0  0  0  0  0  0  0  0  0  0  0
    0.6433    1.1838   -2.7170 H   0  0  0  0  0  0  0  0  0  0  0  0
    1.8328   -0.1203   -2.4479 H   0  0  0  0  0  0  0  0  0  0  0  0
    0.1471   -0.4361   -2.1332 H   0  0  0  0  0  0  0  0  0  0  0  0
    0.1058    2.0092    0.9723 H   0  0  0  0  0  0  0  0  0  0  0  0
   -0.2327    2.5424   -0.6972 H   0  0  0  0  0  0  0  0  0  0  0  0
   -1.8911    1.3793   -1.9335 H   0  0  0  0  0  0  0  0  0  0  0  0
   -3.3737    3.6771    1.1644 H   0  0  0  0  0  0  0  0  0  0  0  0
   -1.5437    3.5566    0.9435 H   0  0  0  0  0  0  0  0  0  0  0  0
   -4.8556    1.9619    0.6613 H   0  0  0  0  0  0  0  0  0  0  0  0
   -4.2949    1.0080   -0.7481 H   0  0  0  0  0  0  0  0  0  0  0  0
   -5.1430   -0.4998    1.0304 H   0  0  0  0  0  0  0  0  0  0  0  0
   -4.0513    0.2406    2.2238 H   0  0  0  0  0  0  0  0  0  0  0  0
   -3.1028   -1.8769    1.4576 H   0  0  0  0  0  0  0  0  0  0  0  0
   -3.9662   -4.1428   -2.4952 H   0  0  0  0  0  0  0  0  0  0  0  0
   -4.6079   -2.4726   -2.7526 H   0  0  0  0  0  0  0  0  0  0  0  0
   -2.8359   -2.7991   -2.9234 H   0  0  0  0  0  0  0  0  0  0  0  0
   -0.2944    0.3582    2.5071 H   0  0  0  0  0  0  0  0  0  0  0  0
   -1.9987    0.7279    2.7466 H   0  0  0  0  0  0  0  0  0  0  0  0
   -1.4129   -0.9523    2.9835 H   0  0  0  0  0  0  0  0  0  0  0  0
   -0.6621   -1.7537   -0.6674 H   0  0  0  0  0  0  0  0  0  0  0  0
   -0.8376   -2.4424    0.9484 H   0  0  0  0  0  0  0  0  0  0  0  0
    1.2799   -1.8871    1.5656 H   0  0  0  0  0  0  0  0  0  0  0  0
  1 27  1  0  0  0  0
  1 28  1  0  0  0  0
  1 29  1  0  0  0  0
  2  1  1  0  0  0  0
  2 30  1  0  0  0  0
  3  2  1  0  0  0  0
  3 31  1  0  0  0  0
  3 32  1  0  0  0  0
  3 33  1  0  0  0  0
  4  2  1  6  0  0  0
  5  4  1  0  0  0  0
  5 34  1  0  0  0  0
  6  4  1  0  0  0  0
  6 35  1  0  0  0  0
  6 36  1  0  0  0  0
  7  6  1  0  0  0  0
  7 37  1  0  0  0  0
  7 38  1  0  0  0  0
  8  7  1  0  0  0  0
  8  9  1  6  0  0  0
  9 39  1  0  0  0  0
  9 40  1  0  0  0  0
  9 41  1  0  0  0  0
 10  8  1  0  0  0  0
 10 42  1  0  0  0  0
 10 43  1  0  0  0  0
 11 10  1  0  0  0  0
 11 12  1  6  0  0  0
 12 44  1  0  0  0  0
 13 11  1  0  0  0  0
 14 13  2  0  0  0  0
 14 45  1  0  0  0  0
 14 46  1  0  0  0  0
 15 13  1  0  0  0  0
 15 47  1  0  0  0  0
 15 48  1  0  0  0  0
 16 15  1  0  0  0  0
 16 49  1  0  0  0  0
 16 50  1  0  0  0  0
 17 16  1  0  0  0  0
 17 51  1  1  0  0  0
 18 17  1  0  0  0  0
 19 18  1  0  0  0  0
 20 19  1  0  0  0  0
 20 52  1  0  0  0  0
 20 53  1  0  0  0  0
 20 54  1  0  0  0  0
 21 19  2  0  0  0  0
 22 17  1  0  0  0  0
 22 11  1  0  0  0  0
 22 23  1  1  0  0  0
 23 55  1  0  0  0  0
 23 56  1  0  0  0  0
 23 57  1  0  0  0  0
 24 22  1  0  0  0  0
 24 58  1  0  0  0  0
 24 59  1  0  0  0  0
 25 24  1  0  0  0  0
 25 60  1  0  0  0  0
 26 25  2  0  0  0  0
 26  4  1  0  0  0  0
 26  8  1  0  0  0  0
M  END
>  <MOL Chiral Flag>
0

>  <energy>
58.364285293620455

$$$$
