>545.sdf
 OpenBabel10062215143D

 88 91  0  0  0  0  0  0  0  0999 V2000
   -5.1194    1.0398    3.2766 C   0  0  0  0  0  0  0  0  0  0  0  0
   -3.6282    1.3956    3.3166 C   0  0  0  0  0  0  0  0  0  0  0  0
   -2.8128    0.3351    2.5576 C   0  0  0  0  0  0  0  0  0  0  0  0
   -3.3021    2.8360    2.8252 C   0  0  0  0  0  0  0  0  0  0  0  0
   -3.7545    3.1893    1.3840 C   0  0  1  0  0  0  0  0  0  0  0  0
   -5.1982    3.4218    1.3942 N   0  0  0  0  0  0  0  0  0  0  0  0
   -6.0824    2.8660    0.5197 C   0  0  0  0  0  0  0  0  0  0  0  0
   -5.6913    2.0626   -0.3106 O   0  0  0  0  0  0  0  0  0  0  0  0
   -7.4116    3.2123    0.5171 O   0  0  0  0  0  0  0  0  0  0  0  0
   -8.1446    4.1274    1.2838 C   0  0  0  0  0  0  0  0  0  0  0  0
   -7.6368    5.5813    1.1039 C   0  0  0  0  0  0  0  0  0  0  0  0
   -9.5901    4.0907    0.7547 C   0  0  0  0  0  0  0  0  0  0  0  0
   -8.1886    3.7202    2.7752 C   0  0  0  0  0  0  0  0  0  0  0  0
   -3.1496    4.4924    0.8615 C   0  0  0  0  0  0  0  0  0  0  0  0
   -3.6018    5.5466    1.2905 O   0  0  0  0  0  0  0  0  0  0  0  0
   -2.2362    4.5302   -0.1676 N   0  0  0  0  0  0  0  0  0  0  0  0
   -2.0312    5.7344   -0.9392 C   0  0  0  0  0  0  0  0  0  0  0  0
   -1.5891    5.1643   -2.2821 C   0  0  0  0  0  0  0  0  0  0  0  0
   -0.6597    4.0586   -1.8337 C   0  0  0  0  0  0  0  0  0  0  0  0
   -1.4280    3.4150   -0.6580 C   0  0  1  0  0  0  0  0  0  0  0  0
   -0.3977    2.9832    0.3795 C   0  0  0  0  0  0  0  0  0  0  0  0
   -0.4306    3.4649    1.4997 O   0  0  0  0  0  0  0  0  0  0  0  0
    0.6658    2.2162    0.0367 N   0  0  0  0  0  0  0  0  0  0  0  0
    1.3267    1.5635   -0.9688 C   0  0  1  0  0  0  0  0  0  0  0  0
    1.8755    1.8519    0.6029 C   0  0  1  0  0  0  0  0  0  0  0  0
    2.6716    3.1221    0.7978 C   0  0  0  0  0  0  0  0  0  0  0  0
    2.9275    3.8220   -0.1750 O   0  0  0  0  0  0  0  0  0  0  0  0
    3.0780    3.5099    2.0386 O   0  0  0  0  0  0  0  0  0  0  0  0
    3.5656    4.7879    2.2668 C   0  0  0  0  0  0  0  0  0  0  0  0
    4.0752    4.9551    3.6725 C   0  0  0  0  0  0  0  0  0  0  0  0
    3.2250    4.7558    4.7727 C   0  0  0  0  0  0  0  0  0  0  0  0
    3.7060    4.9429    6.0746 C   0  0  0  0  0  0  0  0  0  0  0  0
    5.0327    5.3325    6.2843 C   0  0  0  0  0  0  0  0  0  0  0  0
    5.8824    5.5336    5.1945 C   0  0  0  0  0  0  0  0  0  0  0  0
    5.4087    5.3455    3.8937 C   0  0  0  0  0  0  0  0  0  0  0  0
    0.8362    0.1850   -1.2668 C   0  0  0  0  0  0  0  0  0  0  0  0
    1.2891   -0.7696   -0.6505 O   0  0  0  0  0  0  0  0  0  0  0  0
    0.1180   -0.0004   -2.4038 O   0  0  0  0  0  0  0  0  0  0  0  0
    0.2432   -1.0988   -3.2360 C   0  0  0  0  0  0  0  0  0  0  0  0
   -1.0484   -1.8574   -3.3487 C   0  0  0  0  0  0  0  0  0  0  0  0
   -1.0853   -3.2337   -3.0673 C   0  0  0  0  0  0  0  0  0  0  0  0
   -2.2777   -3.9488   -3.2088 C   0  0  0  0  0  0  0  0  0  0  0  0
   -3.4406   -3.2960   -3.6258 C   0  0  0  0  0  0  0  0  0  0  0  0
   -3.4131   -1.9258   -3.9024 C   0  0  0  0  0  0  0  0  0  0  0  0
   -2.2206   -1.2066   -3.7680 C   0  0  0  0  0  0  0  0  0  0  0  0
   -5.4848    0.9662    2.2347 H   0  0  0  0  0  0  0  0  0  0  0  0
   -5.7153    1.7919    3.8328 H   0  0  0  0  0  0  0  0  0  0  0  0
   -5.2846    0.0466    3.7462 H   0  0  0  0  0  0  0  0  0  0  0  0
   -3.3065    1.3490    4.3806 H   0  0  0  0  0  0  0  0  0  0  0  0
   -1.7265    0.5522    2.6447 H   0  0  0  0  0  0  0  0  0  0  0  0
   -2.9943   -0.6704    2.9943 H   0  0  0  0  0  0  0  0  0  0  0  0
   -3.0848    0.2964    1.4831 H   0  0  0  0  0  0  0  0  0  0  0  0
   -2.2084    2.9384    2.9163 H   0  0  0  0  0  0  0  0  0  0  0  0
   -3.7363    3.5801    3.5284 H   0  0  0  0  0  0  0  0  0  0  0  0
   -3.4605    2.3747    0.6988 H   0  0  0  0  0  0  0  0  0  0  0  0
   -5.5310    4.1080    2.0710 H   0  0  0  0  0  0  0  0  0  0  0  0
   -8.2943    6.2887    1.6554 H   0  0  0  0  0  0  0  0  0  0  0  0
   -6.6162    5.7641    1.4771 H   0  0  0  0  0  0  0  0  0  0  0  0
   -7.6494    5.8634    0.0298 H   0  0  0  0  0  0  0  0  0  0  0  0
   -9.6190    4.3779   -0.3187 H   0  0  0  0  0  0  0  0  0  0  0  0
  -10.0181    3.0703    0.8510 H   0  0  0  0  0  0  0  0  0  0  0  0
  -10.2400    4.7966    1.3189 H   0  0  0  0  0  0  0  0  0  0  0  0
   -8.6018    2.6942    2.8793 H   0  0  0  0  0  0  0  0  0  0  0  0
   -8.8417    4.4162    3.3459 H   0  0  0  0  0  0  0  0  0  0  0  0
   -7.2052    3.7332    3.2737 H   0  0  0  0  0  0  0  0  0  0  0  0
   -2.9566    6.3337   -1.0846 H   0  0  0  0  0  0  0  0  0  0  0  0
   -1.2254    6.3382   -0.4669 H   0  0  0  0  0  0  0  0  0  0  0  0
   -1.1351    5.9054   -2.9735 H   0  0  0  0  0  0  0  0  0  0  0  0
   -2.4663    4.6906   -2.7804 H   0  0  0  0  0  0  0  0  0  0  0  0
   -0.3387    3.3452   -2.6224 H   0  0  0  0  0  0  0  0  0  0  0  0
    0.2482    4.5861   -1.4533 H   0  0  0  0  0  0  0  0  0  0  0  0
   -2.0748    2.5923   -1.0320 H   0  0  0  0  0  0  0  0  0  0  0  0
    1.6890    2.2287   -1.7788 H   0  0  0  0  0  0  0  0  0  0  0  0
    1.6214    1.2322    1.4896 H   0  0  0  0  0  0  0  0  0  0  0  0
    2.7504    5.5247    2.0920 H   0  0  0  0  0  0  0  0  0  0  0  0
    4.3859    5.0061    1.5470 H   0  0  0  0  0  0  0  0  0  0  0  0
    2.1939    4.4617    4.6210 H   0  0  0  0  0  0  0  0  0  0  0  0
    3.0499    4.7907    6.9217 H   0  0  0  0  0  0  0  0  0  0  0  0
    5.4022    5.4816    7.2908 H   0  0  0  0  0  0  0  0  0  0  0  0
    6.9081    5.8400    5.3563 H   0  0  0  0  0  0  0  0  0  0  0  0
    6.0780    5.5134    3.0589 H   0  0  0  0  0  0  0  0  0  0  0  0
    0.5139   -0.7242   -4.2456 H   0  0  0  0  0  0  0  0  0  0  0  0
    1.0696   -1.7690   -2.9094 H   0  0  0  0  0  0  0  0  0  0  0  0
   -0.1892   -3.7540   -2.7522 H   0  0  0  0  0  0  0  0  0  0  0  0
   -2.2982   -5.0107   -3.0002 H   0  0  0  0  0  0  0  0  0  0  0  0
   -4.3620   -3.8528   -3.7373 H   0  0  0  0  0  0  0  0  0  0  0  0
   -4.3148   -1.4226   -4.2265 H   0  0  0  0  0  0  0  0  0  0  0  0
   -2.2076   -0.1471   -3.9928 H   0  0  0  0  0  0  0  0  0  0  0  0
  1 46  1  0  0  0  0
  1 47  1  0  0  0  0
  1 48  1  0  0  0  0
  2  1  1  0  0  0  0
  2 49  1  0  0  0  0
  3  2  1  0  0  0  0
  3 50  1  0  0  0  0
  3 51  1  0  0  0  0
  3 52  1  0  0  0  0
  4  2  1  0  0  0  0
  4 53  1  0  0  0  0
  4 54  1  0  0  0  0
  5  4  1  0  0  0  0
  5 55  1  6  0  0  0
  6  5  1  0  0  0  0
  6 56  1  0  0  0  0
  7  6  1  0  0  0  0
  8  7  2  0  0  0  0
  9  7  1  0  0  0  0
 10  9  1  0  0  0  0
 11 10  1  0  0  0  0
 11 57  1  0  0  0  0
 11 58  1  0  0  0  0
 11 59  1  0  0  0  0
 12 10  1  0  0  0  0
 12 60  1  0  0  0  0
 12 61  1  0  0  0  0
 12 62  1  0  0  0  0
 13 10  1  0  0  0  0
 13 63  1  0  0  0  0
 13 64  1  0  0  0  0
 13 65  1  0  0  0  0
 14  5  1  0  0  0  0
 15 14  2  0  0  0  0
 16 14  1  0  0  0  0
 17 16  1  0  0  0  0
 17 66  1  0  0  0  0
 17 67  1  0  0  0  0
 18 17  1  0  0  0  0
 18 68  1  0  0  0  0
 18 69  1  0  0  0  0
 19 18  1  0  0  0  0
 19 70  1  0  0  0  0
 19 71  1  0  0  0  0
 20 19  1  0  0  0  0
 20 16  1  0  0  0  0
 20 72  1  6  0  0  0
 21 20  1  0  0  0  0
 22 21  2  0  0  0  0
 23 21  1  0  0  0  0
 24 23  1  0  0  0  0
 24 73  1  6  0  0  0
 25 24  1  0  0  0  0
 25 23  1  0  0  0  0
 25 74  1  1  0  0  0
 26 25  1  0  0  0  0
 27 26  2  0  0  0  0
 28 26  1  0  0  0  0
 29 28  1  0  0  0  0
 29 75  1  0  0  0  0
 29 76  1  0  0  0  0
 30 29  1  0  0  0  0
 31 30  2  0  0  0  0
 31 77  1  0  0  0  0
 32 31  1  0  0  0  0
 32 78  1  0  0  0  0
 33 32  2  0  0  0  0
 33 79  1  0  0  0  0
 34 33  1  0  0  0  0
 34 80  1  0  0  0  0
 35 34  2  0  0  0  0
 35 30  1  0  0  0  0
 35 81  1  0  0  0  0
 36 24  1  0  0  0  0
 37 36  2  0  0  0  0
 38 36  1  0  0  0  0
 39 38  1  0  0  0  0
 39 82  1  0  0  0  0
 39 83  1  0  0  0  0
 40 39  1  0  0  0  0
 41 40  2  0  0  0  0
 41 84  1  0  0  0  0
 42 41  1  0  0  0  0
 42 85  1  0  0  0  0
 43 42  2  0  0  0  0
 43 86  1  0  0  0  0
 44 43  1  0  0  0  0
 44 87  1  0  0  0  0
 45 44  2  0  0  0  0
 45 40  1  0  0  0  0
 45 88  1  0  0  0  0
M  END
>  <MOL Chiral Flag>
0

>  <energy>
68.975072034542961

$$$$
