>546.sdf
 OpenBabel10102216143D

 38 40  0  0  0  0  0  0  0  0999 V2000
   -1.2786    1.3429   -1.8071 H   0  0  0  0  0  0  0  0  0  0  0  0
   -1.2128    1.1467   -0.7113 C   0  0  2  0  0  0  0  0  0  0  0  0
   -2.5655    1.4059    0.0139 C   0  0  0  0  0  0  0  0  0  0  0  0
   -3.2311    0.0448    0.1552 C   0  0  0  0  0  0  0  0  0  0  0  0
   -2.0402   -0.8938    0.4509 C   0  0  1  0  0  0  0  0  0  0  0  0
   -1.5388   -0.7729    1.9009 C   0  0  0  0  0  0  0  0  0  0  0  0
   -2.3928   -2.2471    0.2573 O   0  0  0  0  0  0  0  0  0  0  0  0
   -1.0314   -0.3950   -0.6146 C   0  0  2  0  0  0  0  0  0  0  0  0
   -1.5337   -0.7661   -1.5432 H   0  0  0  0  0  0  0  0  0  0  0  0
    0.3472   -1.0783   -0.7243 C   0  0  1  0  0  0  0  0  0  0  0  0
    0.8699   -1.1722   -2.0043 O   0  0  0  0  0  0  0  0  0  0  0  0
    2.1440   -1.5794   -1.9224 C   0  0  0  0  0  0  0  0  0  0  0  0
    2.7897   -1.9848   -2.8746 O   0  0  0  0  0  0  0  0  0  0  0  0
    2.6331   -1.4137   -0.5736 C   0  0  0  0  0  0  0  0  0  0  0  0
    3.8430   -1.7476   -0.1109 C   0  0  0  0  0  0  0  0  0  0  0  0
    1.5541   -0.7008    0.1885 C   0  0  1  0  0  0  0  0  0  0  0  0
    1.9644    0.7870    0.1833 C   0  0  0  0  0  0  0  0  0  0  0  0
    0.9503    1.7456    0.7826 C   0  0  0  0  0  0  0  0  0  0  0  0
   -0.1933    2.1286   -0.1442 C   0  0  0  0  0  0  0  0  0  0  0  0
   -0.3530    3.4309   -0.4606 C   0  0  0  0  0  0  0  0  0  0  0  0
   -2.3592    1.7260    1.0590 H   0  0  0  0  0  0  0  0  0  0  0  0
   -3.1900    2.2096   -0.4297 H   0  0  0  0  0  0  0  0  0  0  0  0
   -4.0518    0.0081    0.9036 H   0  0  0  0  0  0  0  0  0  0  0  0
   -3.6649   -0.2068   -0.8394 H   0  0  0  0  0  0  0  0  0  0  0  0
   -1.2264    0.2440    2.1821 H   0  0  0  0  0  0  0  0  0  0  0  0
   -0.6857   -1.4622    2.0631 H   0  0  0  0  0  0  0  0  0  0  0  0
   -2.3473   -1.0801    2.5975 H   0  0  0  0  0  0  0  0  0  0  0  0
   -2.8201   -2.3479   -0.6334 H   0  0  0  0  0  0  0  0  0  0  0  0
    0.1223   -2.1442   -0.4688 H   0  0  0  0  0  0  0  0  0  0  0  0
    4.1073   -1.5403    0.9217 H   0  0  0  0  0  0  0  0  0  0  0  0
    4.5668   -2.2338   -0.7561 H   0  0  0  0  0  0  0  0  0  0  0  0
    1.3912   -1.0776    1.2196 H   0  0  0  0  0  0  0  0  0  0  0  0
    2.2393    1.1502   -0.8338 H   0  0  0  0  0  0  0  0  0  0  0  0
    2.8783    0.8481    0.8164 H   0  0  0  0  0  0  0  0  0  0  0  0
    0.5901    1.3558    1.7510 H   0  0  0  0  0  0  0  0  0  0  0  0
    1.5192    2.6710    1.0278 H   0  0  0  0  0  0  0  0  0  0  0  0
   -1.1675    3.7488   -1.1062 H   0  0  0  0  0  0  0  0  0  0  0  0
    0.3201    4.1951   -0.0845 H   0  0  0  0  0  0  0  0  0  0  0  0
  2  1  1  6  0  0  0
  3  2  1  0  0  0  0
  3 21  1  0  0  0  0
  3 22  1  0  0  0  0
  4  3  1  0  0  0  0
  4 23  1  0  0  0  0
  4 24  1  0  0  0  0
  5  4  1  0  0  0  0
  5  6  1  1  0  0  0
  6 25  1  0  0  0  0
  6 26  1  0  0  0  0
  6 27  1  0  0  0  0
  7  5  1  0  0  0  0
  7 28  1  0  0  0  0
  8  5  1  0  0  0  0
  8  2  1  0  0  0  0
  8  9  1  6  0  0  0
 10  8  1  0  0  0  0
 10 29  1  1  0  0  0
 11 10  1  0  0  0  0
 12 11  1  0  0  0  0
 13 12  2  0  0  0  0
 14 12  1  0  0  0  0
 15 14  2  0  0  0  0
 15 30  1  0  0  0  0
 15 31  1  0  0  0  0
 16 14  1  0  0  0  0
 16 10  1  0  0  0  0
 16 32  1  1  0  0  0
 17 16  1  0  0  0  0
 17 33  1  0  0  0  0
 17 34  1  0  0  0  0
 18 17  1  0  0  0  0
 18 35  1  0  0  0  0
 18 36  1  0  0  0  0
 19 18  1  0  0  0  0
 19  2  1  0  0  0  0
 20 19  2  0  0  0  0
 20 37  1  0  0  0  0
 20 38  1  0  0  0  0
M  END
>  <MOL Chiral Flag>
0

>  <energy>
64.86592396338888

$$$$
