>548.sdf
 OpenBabel10062215153D

 80 82  0  0  0  0  0  0  0  0999 V2000
    7.5608    7.7380   -1.1680 C   0  0  0  0  0  0  0  0  0  0  0  0
    7.9879    6.3811   -1.7257 C   0  0  0  0  0  0  0  0  0  0  0  0
    6.8936    5.2936   -1.7008 C   0  0  0  0  0  0  0  0  0  0  0  0
    5.6213    5.7226   -2.4477 C   0  0  0  0  0  0  0  0  0  0  0  0
    4.7367    4.5546   -2.9107 C   0  0  0  0  0  0  0  0  0  0  0  0
    4.1601    3.6119   -1.8469 C   0  0  0  0  0  0  0  0  0  0  0  0
    3.3595    2.6901   -2.5587 O   0  0  0  0  0  0  0  0  0  0  0  0
    2.9280    1.5855   -1.7914 C   0  0  0  0  0  0  0  0  0  0  0  0
    3.9532    0.4373   -1.8695 C   0  0  0  0  0  0  0  0  0  0  0  0
    3.4317   -0.9900   -1.5025 C   0  0  1  0  0  0  0  0  0  0  0  0
    2.4083   -1.4919   -2.5674 C   0  0  0  0  0  0  0  0  0  0  0  0
    1.9705   -2.9380   -2.2531 C   0  0  1  0  0  0  0  0  0  0  0  0
    3.1975   -3.8690   -2.2611 C   0  0  0  0  0  0  0  0  0  0  0  0
    4.2032   -3.3956   -1.1944 C   0  0  1  0  0  0  0  0  0  0  0  0
    4.6513   -1.9563   -1.5112 C   0  0  0  0  0  0  0  0  0  0  0  0
    3.5409   -3.4331    0.1965 C   0  0  0  0  0  0  0  0  0  0  0  0
    2.2951   -2.5022    0.2301 C   0  0  2  0  0  0  0  0  0  0  0  0
    1.6604   -2.6046    1.6514 C   0  0  0  0  0  0  0  0  0  0  0  0
    0.3455   -1.8404    1.8595 C   0  0  0  0  0  0  0  0  0  0  0  0
   -0.0813   -2.0267    3.1892 O   0  0  0  0  0  0  0  0  0  0  0  0
   -1.7905   -1.6600    3.2783 P   0  0  2  0  0  0  0  0  0  0  0  0
   -2.2190   -1.1318    4.8748 O   0  5  0  0  0  0  0  0  0  0  0  0
   -2.5390   -2.9955    3.0105 O   0  0  0  0  0  0  0  0  0  0  0  0
   -2.2501   -0.4780    2.0669 O   0  0  0  0  0  0  0  0  0  0  0  0
   -3.6191   -0.6165    1.7780 C   0  0  0  0  0  0  0  0  0  0  0  0
   -3.9821    0.4097    0.6867 C   0  0  0  0  0  0  0  0  0  0  0  0
   -5.4055    0.4039    0.2292 N   0  3  0  0  0  0  0  0  0  0  0  0
   -6.3302    0.7530    1.3340 C   0  0  0  0  0  0  0  0  0  0  0  0
   -5.5439    1.4283   -0.8347 C   0  0  0  0  0  0  0  0  0  0  0  0
   -5.7905   -0.9101   -0.3405 C   0  0  0  0  0  0  0  0  0  0  0  0
    1.2983   -2.9799   -0.8676 C   0  0  0  0  0  0  0  0  0  0  0  0
    2.7593   -1.0456   -0.0974 C   0  0  0  0  0  0  0  0  0  0  0  0
    8.4195    8.4414   -1.2328 H   0  0  0  0  0  0  0  0  0  0  0  0
    7.2470    7.6490   -0.1086 H   0  0  0  0  0  0  0  0  0  0  0  0
    6.7326    8.1675   -1.7701 H   0  0  0  0  0  0  0  0  0  0  0  0
    8.3133    6.5332   -2.7787 H   0  0  0  0  0  0  0  0  0  0  0  0
    8.8647    6.0138   -1.1498 H   0  0  0  0  0  0  0  0  0  0  0  0
    6.6301    5.0071   -0.6591 H   0  0  0  0  0  0  0  0  0  0  0  0
    7.3375    4.4074   -2.2035 H   0  0  0  0  0  0  0  0  0  0  0  0
    5.0439    6.4424   -1.8270 H   0  0  0  0  0  0  0  0  0  0  0  0
    5.9225    6.2416   -3.3843 H   0  0  0  0  0  0  0  0  0  0  0  0
    5.3274    3.9399   -3.6252 H   0  0  0  0  0  0  0  0  0  0  0  0
    3.8841    4.9984   -3.4710 H   0  0  0  0  0  0  0  0  0  0  0  0
    3.5367    4.1917   -1.1312 H   0  0  0  0  0  0  0  0  0  0  0  0
    4.9988    3.1063   -1.3188 H   0  0  0  0  0  0  0  0  0  0  0  0
    2.6699    1.8508   -0.7412 H   0  0  0  0  0  0  0  0  0  0  0  0
    1.9808    1.2684   -2.2658 H   0  0  0  0  0  0  0  0  0  0  0  0
    4.3336    0.3805   -2.9139 H   0  0  0  0  0  0  0  0  0  0  0  0
    4.8113    0.7155   -1.2202 H   0  0  0  0  0  0  0  0  0  0  0  0
    2.8664   -1.4651   -3.5811 H   0  0  0  0  0  0  0  0  0  0  0  0
    1.5038   -0.8497   -2.5910 H   0  0  0  0  0  0  0  0  0  0  0  0
    1.2463   -3.2803   -3.0246 H   0  0  0  0  0  0  0  0  0  0  0  0
    2.8820   -4.9146   -2.0498 H   0  0  0  0  0  0  0  0  0  0  0  0
    3.6753   -3.8587   -3.2655 H   0  0  0  0  0  0  0  0  0  0  0  0
    5.0883   -4.0685   -1.2004 H   0  0  0  0  0  0  0  0  0  0  0  0
    5.4018   -1.6324   -0.7560 H   0  0  0  0  0  0  0  0  0  0  0  0
    5.1492   -1.9413   -2.5066 H   0  0  0  0  0  0  0  0  0  0  0  0
    4.2791   -3.1167    0.9667 H   0  0  0  0  0  0  0  0  0  0  0  0
    3.2443   -4.4810    0.4275 H   0  0  0  0  0  0  0  0  0  0  0  0
    2.3998   -2.2480    2.4020 H   0  0  0  0  0  0  0  0  0  0  0  0
    1.4480   -3.6754    1.8701 H   0  0  0  0  0  0  0  0  0  0  0  0
    0.4982   -0.7566    1.6766 H   0  0  0  0  0  0  0  0  0  0  0  0
   -0.3984   -2.2564    1.1446 H   0  0  0  0  0  0  0  0  0  0  0  0
   -4.2146   -0.4201    2.6949 H   0  0  0  0  0  0  0  0  0  0  0  0
   -3.8151   -1.6342    1.3823 H   0  0  0  0  0  0  0  0  0  0  0  0
   -3.7175    1.4196    1.0778 H   0  0  0  0  0  0  0  0  0  0  0  0
   -3.3111    0.2116   -0.1816 H   0  0  0  0  0  0  0  0  0  0  0  0
   -7.3783    0.8329    0.9670 H   0  0  0  0  0  0  0  0  0  0  0  0
   -6.0539    1.7283    1.7934 H   0  0  0  0  0  0  0  0  0  0  0  0
   -6.3315   -0.0218    2.1291 H   0  0  0  0  0  0  0  0  0  0  0  0
   -4.8783    1.2026   -1.6986 H   0  0  0  0  0  0  0  0  0  0  0  0
   -5.2776    2.4407   -0.4554 H   0  0  0  0  0  0  0  0  0  0  0  0
   -6.5875    1.4767   -1.2194 H   0  0  0  0  0  0  0  0  0  0  0  0
   -6.8161   -0.8738   -0.7721 H   0  0  0  0  0  0  0  0  0  0  0  0
   -5.8062   -1.7060    0.4336 H   0  0  0  0  0  0  0  0  0  0  0  0
   -5.0893   -1.2164   -1.1486 H   0  0  0  0  0  0  0  0  0  0  0  0
    0.4014   -2.3262   -0.9032 H   0  0  0  0  0  0  0  0  0  0  0  0
    0.9576   -4.0173   -0.6525 H   0  0  0  0  0  0  0  0  0  0  0  0
    3.4789   -0.6960    0.6757 H   0  0  0  0  0  0  0  0  0  0  0  0
    1.8845   -0.3627   -0.0845 H   0  0  0  0  0  0  0  0  0  0  0  0
  1 33  1  0  0  0  0
  1 34  1  0  0  0  0
  1 35  1  0  0  0  0
  2  1  1  0  0  0  0
  2 36  1  0  0  0  0
  2 37  1  0  0  0  0
  3  2  1  0  0  0  0
  3 38  1  0  0  0  0
  3 39  1  0  0  0  0
  4  3  1  0  0  0  0
  4 40  1  0  0  0  0
  4 41  1  0  0  0  0
  5  4  1  0  0  0  0
  5 42  1  0  0  0  0
  5 43  1  0  0  0  0
  6  5  1  0  0  0  0
  6 44  1  0  0  0  0
  6 45  1  0  0  0  0
  7  6  1  0  0  0  0
  8  7  1  0  0  0  0
  8 46  1  0  0  0  0
  8 47  1  0  0  0  0
  9  8  1  0  0  0  0
  9 48  1  0  0  0  0
  9 49  1  0  0  0  0
 10  9  1  6  0  0  0
 11 10  1  0  0  0  0
 11 50  1  0  0  0  0
 11 51  1  0  0  0  0
 12 11  1  0  0  0  0
 12 52  1  6  0  0  0
 13 12  1  0  0  0  0
 13 53  1  0  0  0  0
 13 54  1  0  0  0  0
 14 13  1  0  0  0  0
 14 55  1  6  0  0  0
 15 14  1  0  0  0  0
 15 10  1  0  0  0  0
 15 56  1  0  0  0  0
 15 57  1  0  0  0  0
 16 14  1  0  0  0  0
 16 58  1  0  0  0  0
 16 59  1  0  0  0  0
 17 16  1  0  0  0  0
 17 18  1  1  0  0  0
 18 60  1  0  0  0  0
 18 61  1  0  0  0  0
 19 18  1  0  0  0  0
 19 62  1  0  0  0  0
 19 63  1  0  0  0  0
 20 19  1  0  0  0  0
 21 20  1  6  0  0  0
 22 21  1  0  0  0  0
 23 21  2  0  0  0  0
 24 21  1  0  0  0  0
 25 24  1  0  0  0  0
 25 64  1  0  0  0  0
 25 65  1  0  0  0  0
 26 25  1  0  0  0  0
 26 66  1  0  0  0  0
 26 67  1  0  0  0  0
 27 26  1  0  0  0  0
 28 27  1  0  0  0  0
 28 68  1  0  0  0  0
 28 69  1  0  0  0  0
 28 70  1  0  0  0  0
 29 27  1  0  0  0  0
 29 71  1  0  0  0  0
 29 72  1  0  0  0  0
 29 73  1  0  0  0  0
 30 27  1  0  0  0  0
 30 74  1  0  0  0  0
 30 75  1  0  0  0  0
 30 76  1  0  0  0  0
 31 17  1  0  0  0  0
 31 12  1  0  0  0  0
 31 77  1  0  0  0  0
 31 78  1  0  0  0  0
 32 17  1  0  0  0  0
 32 10  1  0  0  0  0
 32 79  1  0  0  0  0
 32 80  1  0  0  0  0
M  CHG  2  22  -1  27   1
M  END
>  <MOL Chiral Flag>
0

>  <energy>
-61.472119889863563

$$$$
