>550.sdf
 OpenBabel10062215173D

 40 39  0  0  0  0  0  0  0  0999 V2000
   -4.2950   -7.7510   -1.6253 O   0  0  0  0  0  0  0  0  0  0  0  0
   -3.8477   -7.8060   -0.2779 C   0  0  2  0  0  0  0  0  0  0  0  0
   -4.9983   -7.6228    0.6747 C   0  0  0  0  0  0  0  0  0  0  0  0
   -6.2996   -7.5203    0.3627 C   0  0  0  0  0  0  0  0  0  0  0  0
   -2.8413   -6.7626   -0.0608 C   0  0  0  0  0  0  0  0  0  0  0  0
   -2.0046   -5.9152    0.0934 C   0  0  0  0  0  0  0  0  0  0  0  0
   -0.9294   -4.8392    0.2604 C   0  0  0  0  0  0  0  0  0  0  0  0
   -0.0807   -3.9959    0.3628 C   0  0  0  0  0  0  0  0  0  0  0  0
    0.9484   -2.9535    0.4654 C   0  0  0  0  0  0  0  0  0  0  0  0
    2.2856   -3.4914    0.0366 C   0  0  0  0  0  0  0  0  0  0  0  0
    3.4868   -2.9744    0.3513 C   0  0  0  0  0  0  0  0  0  0  0  0
    3.7369   -1.7368    1.1690 C   0  0  0  0  0  0  0  0  0  0  0  0
    4.2567   -0.5903    0.2954 C   0  0  0  0  0  0  0  0  0  0  0  0
    5.7849   -0.5145    0.2743 C   0  0  0  0  0  0  0  0  0  0  0  0
    6.2933    0.4257   -0.8284 C   0  0  0  0  0  0  0  0  0  0  0  0
    7.5724    1.1664   -0.4101 C   0  0  0  0  0  0  0  0  0  0  0  0
    8.6602    1.1359   -1.4452 C   0  0  0  0  0  0  0  0  0  0  0  0
    9.7213    1.9524   -1.4015 C   0  0  0  0  0  0  0  0  0  0  0  0
   -4.5832   -6.8348   -1.7742 H   0  0  0  0  0  0  0  0  0  0  0  0
   -3.4056   -8.7942   -0.1148 H   0  0  0  0  0  0  0  0  0  0  0  0
   -4.7270   -7.5932    1.7291 H   0  0  0  0  0  0  0  0  0  0  0  0
   -7.0489   -7.4036    1.1396 H   0  0  0  0  0  0  0  0  0  0  0  0
   -6.6510   -7.5702   -0.6635 H   0  0  0  0  0  0  0  0  0  0  0  0
    0.6762   -2.1110   -0.1800 H   0  0  0  0  0  0  0  0  0  0  0  0
    0.9826   -2.5935    1.4989 H   0  0  0  0  0  0  0  0  0  0  0  0
    2.2733   -4.3735   -0.6036 H   0  0  0  0  0  0  0  0  0  0  0  0
    4.3741   -3.4710   -0.0402 H   0  0  0  0  0  0  0  0  0  0  0  0
    4.4441   -1.9746    1.9726 H   0  0  0  0  0  0  0  0  0  0  0  0
    2.8178   -1.4057    1.6621 H   0  0  0  0  0  0  0  0  0  0  0  0
    3.8808    0.3565    0.7041 H   0  0  0  0  0  0  0  0  0  0  0  0
    3.8605   -0.6693   -0.7245 H   0  0  0  0  0  0  0  0  0  0  0  0
    6.2200   -1.5090    0.1167 H   0  0  0  0  0  0  0  0  0  0  0  0
    6.1197   -0.1757    1.2623 H   0  0  0  0  0  0  0  0  0  0  0  0
    6.4438   -0.1661   -1.7403 H   0  0  0  0  0  0  0  0  0  0  0  0
    5.5266    1.1713   -1.0744 H   0  0  0  0  0  0  0  0  0  0  0  0
    7.9787    0.7454    0.5163 H   0  0  0  0  0  0  0  0  0  0  0  0
    7.3045    2.2104   -0.1987 H   0  0  0  0  0  0  0  0  0  0  0  0
    8.6027    0.3964   -2.2404 H   0  0  0  0  0  0  0  0  0  0  0  0
   10.5074    1.8860   -2.1470 H   0  0  0  0  0  0  0  0  0  0  0  0
    9.8390    2.6889   -0.6120 H   0  0  0  0  0  0  0  0  0  0  0  0
  1 19  1  0  0  0  0
  2  1  1  0  0  0  0
  2 20  1  1  0  0  0
  3  2  1  0  0  0  0
  3 21  1  0  0  0  0
  4  3  2  0  0  0  0
  4 22  1  0  0  0  0
  4 23  1  0  0  0  0
  5  2  1  0  0  0  0
  6  5  3  0  0  0  0
  7  6  1  0  0  0  0
  8  7  3  0  0  0  0
  9  8  1  0  0  0  0
  9 24  1  0  0  0  0
  9 25  1  0  0  0  0
 10  9  1  0  0  0  0
 10 26  1  0  0  0  0
 11 10  2  0  0  0  0
 11 27  1  0  0  0  0
 12 11  1  0  0  0  0
 12 28  1  0  0  0  0
 12 29  1  0  0  0  0
 13 12  1  0  0  0  0
 13 30  1  0  0  0  0
 13 31  1  0  0  0  0
 14 13  1  0  0  0  0
 14 32  1  0  0  0  0
 14 33  1  0  0  0  0
 15 14  1  0  0  0  0
 15 34  1  0  0  0  0
 15 35  1  0  0  0  0
 16 15  1  0  0  0  0
 16 36  1  0  0  0  0
 16 37  1  0  0  0  0
 17 16  1  0  0  0  0
 17 38  1  0  0  0  0
 18 17  2  0  0  0  0
 18 39  1  0  0  0  0
 18 40  1  0  0  0  0
M  END
>  <MOL Chiral Flag>
0

>  <energy>
15.351352683482434

$$$$
