>552.sdf
 OpenBabel10062215173D

 36 37  0  0  0  0  0  0  0  0999 V2000
   -1.5773    3.1497   -1.1600 C   0  0  0  0  0  0  0  0  0  0  0  0
   -2.4539    2.0365   -1.7360 C   0  0  0  0  0  0  0  0  0  0  0  0
   -2.2498    0.8441   -1.0646 O   0  0  0  0  0  0  0  0  0  0  0  0
   -1.0940    0.1303   -1.0978 C   0  0  0  0  0  0  0  0  0  0  0  0
   -0.2187    0.4413   -1.8947 O   0  0  0  0  0  0  0  0  0  0  0  0
   -0.8497   -1.0172   -0.1484 C   0  0  0  0  0  0  0  0  0  0  0  0
   -1.8139   -1.4961    0.7039 C   0  0  0  0  0  0  0  0  0  0  0  0
   -3.2116   -0.9217    0.7509 C   0  0  0  0  0  0  0  0  0  0  0  0
   -1.5306   -2.5811    1.5839 N   0  0  0  0  0  0  0  0  0  0  0  0
   -0.2595   -3.2000    1.6057 C   0  0  0  0  0  0  0  0  0  0  0  0
   -0.0060   -4.2985    2.5032 S   0  0  0  0  0  0  0  0  0  0  0  0
    0.7608   -2.7423    0.7395 N   0  0  0  0  0  0  0  0  0  0  0  0
    0.5606   -1.6319   -0.1722 C   0  0  2  0  0  0  0  0  0  0  0  0
    1.5910   -0.5656    0.1434 C   0  0  0  0  0  0  0  0  0  0  0  0
    1.5578    0.1173    1.3724 C   0  0  0  0  0  0  0  0  0  0  0  0
    2.4998    1.1116    1.6507 C   0  0  0  0  0  0  0  0  0  0  0  0
    3.4843    1.4291    0.7113 C   0  0  0  0  0  0  0  0  0  0  0  0
    3.5328    0.7533   -0.5122 C   0  0  0  0  0  0  0  0  0  0  0  0
    4.4898    1.0672   -1.4091 O   0  0  0  0  0  0  0  0  0  0  0  0
    2.5861   -0.2425   -0.7964 C   0  0  0  0  0  0  0  0  0  0  0  0
   -0.4997    2.9150   -1.2829 H   0  0  0  0  0  0  0  0  0  0  0  0
   -1.7895    4.1036   -1.6863 H   0  0  0  0  0  0  0  0  0  0  0  0
   -1.7940    3.2807   -0.0783 H   0  0  0  0  0  0  0  0  0  0  0  0
   -3.5158    2.3328   -1.6043 H   0  0  0  0  0  0  0  0  0  0  0  0
   -2.2603    1.9072   -2.8230 H   0  0  0  0  0  0  0  0  0  0  0  0
   -3.7019   -1.0268   -0.2402 H   0  0  0  0  0  0  0  0  0  0  0  0
   -3.8435   -1.4604    1.4872 H   0  0  0  0  0  0  0  0  0  0  0  0
   -3.1839    0.1419    1.0662 H   0  0  0  0  0  0  0  0  0  0  0  0
   -2.2719   -2.9245    2.2150 H   0  0  0  0  0  0  0  0  0  0  0  0
    1.6834   -3.2069    0.7470 H   0  0  0  0  0  0  0  0  0  0  0  0
    0.7271   -2.0246   -1.1995 H   0  0  0  0  0  0  0  0  0  0  0  0
    0.7975   -0.1170    2.1072 H   0  0  0  0  0  0  0  0  0  0  0  0
    2.4657    1.6386    2.5954 H   0  0  0  0  0  0  0  0  0  0  0  0
    4.2106    2.2009    0.9334 H   0  0  0  0  0  0  0  0  0  0  0  0
    4.5537    0.6171   -2.2638 H   0  0  0  0  0  0  0  0  0  0  0  0
    2.6247   -0.7612   -1.7466 H   0  0  0  0  0  0  0  0  0  0  0  0
  1 21  1  0  0  0  0
  1 22  1  0  0  0  0
  1 23  1  0  0  0  0
  2  1  1  0  0  0  0
  2 24  1  0  0  0  0
  2 25  1  0  0  0  0
  3  2  1  0  0  0  0
  4  3  1  0  0  0  0
  5  4  2  0  0  0  0
  6  4  1  0  0  0  0
  7  6  2  0  0  0  0
  8  7  1  0  0  0  0
  8 26  1  0  0  0  0
  8 27  1  0  0  0  0
  8 28  1  0  0  0  0
  9  7  1  0  0  0  0
  9 29  1  0  0  0  0
 10  9  1  0  0  0  0
 11 10  2  0  0  0  0
 12 10  1  0  0  0  0
 12 30  1  0  0  0  0
 13 12  1  0  0  0  0
 13  6  1  0  0  0  0
 13 31  1  6  0  0  0
 14 13  1  0  0  0  0
 15 14  2  0  0  0  0
 15 32  1  0  0  0  0
 16 15  1  0  0  0  0
 16 33  1  0  0  0  0
 17 16  2  0  0  0  0
 17 34  1  0  0  0  0
 18 17  1  0  0  0  0
 19 18  1  0  0  0  0
 19 35  1  0  0  0  0
 20 18  2  0  0  0  0
 20 14  1  0  0  0  0
 20 36  1  0  0  0  0
M  END
>  <MOL Chiral Flag>
0

>  <energy>
-61.517252528578311

$$$$
