>552_2.sdf
 OpenBabel10102215433D

 36 37  0  0  0  0  0  0  0  0999 V2000
   -1.9843    3.4264   -1.2306 C   0  0  0  0  0  0  0  0  0  0  0  0
   -2.5227    2.1139   -1.8079 C   0  0  0  0  0  0  0  0  0  0  0  0
   -2.3085    1.0365   -0.9624 O   0  0  0  0  0  0  0  0  0  0  0  0
   -1.0915    0.5818   -0.5606 C   0  0  0  0  0  0  0  0  0  0  0  0
   -0.0855    1.1650   -0.9290 O   0  0  0  0  0  0  0  0  0  0  0  0
   -0.9678   -0.6381    0.3195 C   0  0  0  0  0  0  0  0  0  0  0  0
   -2.0320   -1.4642    0.6151 C   0  0  0  0  0  0  0  0  0  0  0  0
   -3.4439   -1.1799    0.1617 C   0  0  0  0  0  0  0  0  0  0  0  0
   -1.7983   -2.6896    1.3307 N   0  0  0  0  0  0  0  0  0  0  0  0
   -0.4760   -3.2269    1.3804 C   0  0  0  0  0  0  0  0  0  0  0  0
   -0.2538   -4.6073    1.7203 S   0  0  0  0  0  0  0  0  0  0  0  0
    0.6041   -2.3908    1.0003 N   0  0  0  0  0  0  0  0  0  0  0  0
    0.3508   -0.9723    1.0369 C   0  0  1  0  0  0  0  0  0  0  0  0
    1.5972   -0.1377    0.7785 C   0  0  0  0  0  0  0  0  0  0  0  0
    2.0589    0.7220    1.7943 C   0  0  0  0  0  0  0  0  0  0  0  0
    3.1917    1.5090    1.6006 C   0  0  0  0  0  0  0  0  0  0  0  0
    3.8850    1.4511    0.3932 C   0  0  0  0  0  0  0  0  0  0  0  0
    3.4492    0.6004   -0.6293 C   0  0  0  0  0  0  0  0  0  0  0  0
    4.1344    0.5625   -1.7900 O   0  0  0  0  0  0  0  0  0  0  0  0
    2.3052   -0.2002   -0.4380 C   0  0  0  0  0  0  0  0  0  0  0  0
   -0.8802    3.4104   -1.1356 H   0  0  0  0  0  0  0  0  0  0  0  0
   -2.2433    4.2638   -1.9110 H   0  0  0  0  0  0  0  0  0  0  0  0
   -2.4286    3.6176   -0.2319 H   0  0  0  0  0  0  0  0  0  0  0  0
   -3.6192    2.2244   -1.9466 H   0  0  0  0  0  0  0  0  0  0  0  0
   -2.0665    1.9167   -2.8019 H   0  0  0  0  0  0  0  0  0  0  0  0
   -3.5038   -1.1452   -0.9450 H   0  0  0  0  0  0  0  0  0  0  0  0
   -4.1393   -1.9721    0.5105 H   0  0  0  0  0  0  0  0  0  0  0  0
   -3.7954   -0.2231    0.6036 H   0  0  0  0  0  0  0  0  0  0  0  0
   -2.5993   -3.2856    1.5934 H   0  0  0  0  0  0  0  0  0  0  0  0
    1.5541   -2.7647    0.8441 H   0  0  0  0  0  0  0  0  0  0  0  0
    0.0689   -0.7705    2.0955 H   0  0  0  0  0  0  0  0  0  0  0  0
    1.5349    0.7876    2.7398 H   0  0  0  0  0  0  0  0  0  0  0  0
    3.5299    2.1673    2.3907 H   0  0  0  0  0  0  0  0  0  0  0  0
    4.7626    2.0694    0.2523 H   0  0  0  0  0  0  0  0  0  0  0  0
    3.8650   -0.0054   -2.5247 H   0  0  0  0  0  0  0  0  0  0  0  0
    1.9671   -0.8570   -1.2301 H   0  0  0  0  0  0  0  0  0  0  0  0
  1 21  1  0  0  0  0
  1 22  1  0  0  0  0
  1 23  1  0  0  0  0
  2  1  1  0  0  0  0
  2 24  1  0  0  0  0
  2 25  1  0  0  0  0
  3  2  1  0  0  0  0
  4  3  1  0  0  0  0
  5  4  2  0  0  0  0
  6  4  1  0  0  0  0
  7  6  2  0  0  0  0
  8  7  1  0  0  0  0
  8 26  1  0  0  0  0
  8 27  1  0  0  0  0
  8 28  1  0  0  0  0
  9  7  1  0  0  0  0
  9 29  1  0  0  0  0
 10  9  1  0  0  0  0
 11 10  2  0  0  0  0
 12 10  1  0  0  0  0
 12 30  1  0  0  0  0
 13 12  1  0  0  0  0
 13  6  1  0  0  0  0
 13 31  1  1  0  0  0
 14 13  1  0  0  0  0
 15 14  2  0  0  0  0
 15 32  1  0  0  0  0
 16 15  1  0  0  0  0
 16 33  1  0  0  0  0
 17 16  2  0  0  0  0
 17 34  1  0  0  0  0
 18 17  1  0  0  0  0
 19 18  1  0  0  0  0
 19 35  1  0  0  0  0
 20 18  2  0  0  0  0
 20 14  1  0  0  0  0
 20 36  1  0  0  0  0
M  END
>  <MOL Chiral Flag>
0

>  <energy>
-61.517252528578311

$$$$
