>553.sdf
 OpenBabel10062215193D

 79 83  0  0  0  0  0  0  0  0999 V2000
   -3.5850   -0.9883    1.4402 C   0  0  0  0  0  0  0  0  0  0  0  0
   -3.6116   -1.6406    0.0556 C   0  0  0  0  0  0  0  0  0  0  0  0
   -2.3059   -2.4147   -0.2198 C   0  0  0  0  0  0  0  0  0  0  0  0
   -3.9754   -0.7012   -0.9193 O   0  0  0  0  0  0  0  0  0  0  0  0
   -3.2654   -0.2970   -2.0128 C   0  0  0  0  0  0  0  0  0  0  0  0
   -3.8442   -0.4637   -3.2970 C   0  0  0  0  0  0  0  0  0  0  0  0
   -3.1569   -0.0275   -4.4626 C   0  0  0  0  0  0  0  0  0  0  0  0
   -3.6878   -0.0655   -5.8054 N   0  0  0  0  0  0  0  0  0  0  0  0
   -4.7708   -0.8303   -6.3690 C   0  0  0  0  0  0  0  0  0  0  0  0
   -5.2258   -1.8923   -5.7773 N   0  0  0  0  0  0  0  0  0  0  0  0
   -5.3150   -0.4701   -7.7385 C   0  0  0  0  0  0  0  0  0  0  0  0
   -4.9211    0.7076   -8.4241 C   0  0  0  0  0  0  0  0  0  0  0  0
   -5.4172    0.9629   -9.7050 C   0  0  0  0  0  0  0  0  0  0  0  0
   -6.2981    0.0674  -10.3019 C   0  0  0  0  0  0  0  0  0  0  0  0
   -6.6835   -1.0761   -9.6040 C   0  0  0  0  0  0  0  0  0  0  0  0
   -6.1907   -1.3148   -8.3566 N   0  0  0  0  0  0  0  0  0  0  0  0
   -1.8946    0.5622   -4.3005 C   0  0  0  0  0  0  0  0  0  0  0  0
   -1.3238    0.7327   -3.0472 C   0  0  0  0  0  0  0  0  0  0  0  0
   -1.9977    0.3304   -1.8966 C   0  0  0  0  0  0  0  0  0  0  0  0
   -1.4457    0.8007   -0.6139 C   0  0  0  0  0  0  0  0  0  0  0  0
   -2.0102    1.8550    0.0668 C   0  0  0  0  0  0  0  0  0  0  0  0
   -1.1308    2.1827    1.0603 C   0  0  0  0  0  0  0  0  0  0  0  0
   -0.0627    1.3042    0.9472 C   0  0  0  0  0  0  0  0  0  0  0  0
   -0.2744    0.4953   -0.0769 O   0  0  0  0  0  0  0  0  0  0  0  0
    1.1223    1.2979    1.8566 C   0  0  0  0  0  0  0  0  0  0  0  0
    1.5921    2.5098    2.4033 C   0  0  0  0  0  0  0  0  0  0  0  0
    1.0137    3.6874    2.0351 O   0  0  0  0  0  0  0  0  0  0  0  0
    1.5793    4.9508    2.1249 C   0  0  0  0  0  0  0  0  0  0  0  0
    2.7036    5.0914    1.0897 C   0  0  0  0  0  0  0  0  0  0  0  0
    0.4939    5.9923    1.8820 C   0  0  0  0  0  0  0  0  0  0  0  0
    2.6461    2.4897    3.3200 C   0  0  0  0  0  0  0  0  0  0  0  0
    3.2446    1.3025    3.7485 C   0  0  0  0  0  0  0  0  0  0  0  0
    4.2128    1.4398    4.8040 N   0  0  0  0  0  0  0  0  0  0  0  0
    4.9349    0.4579    5.5595 C   0  0  0  0  0  0  0  0  0  0  0  0
    5.3570   -0.6396    5.0258 N   0  0  0  0  0  0  0  0  0  0  0  0
    5.2854    0.7962    6.9830 C   0  0  0  0  0  0  0  0  0  0  0  0
    6.2953    0.1397    7.6248 N   0  0  0  0  0  0  0  0  0  0  0  0
    6.6641    0.4593    8.8984 C   0  0  0  0  0  0  0  0  0  0  0  0
    5.9959    1.4702    9.5940 C   0  0  0  0  0  0  0  0  0  0  0  0
    4.9470    2.1431    8.9768 C   0  0  0  0  0  0  0  0  0  0  0  0
    4.5879    1.8147    7.6723 C   0  0  0  0  0  0  0  0  0  0  0  0
    2.7964    0.0858    3.1822 C   0  0  0  0  0  0  0  0  0  0  0  0
    1.7582    0.0923    2.2213 C   0  0  0  0  0  0  0  0  0  0  0  0
   -4.5642   -0.5084    1.6491 H   0  0  0  0  0  0  0  0  0  0  0  0
   -2.7903   -0.2253    1.5141 H   0  0  0  0  0  0  0  0  0  0  0  0
   -3.3960   -1.7511    2.2260 H   0  0  0  0  0  0  0  0  0  0  0  0
   -4.4158   -2.4082    0.0784 H   0  0  0  0  0  0  0  0  0  0  0  0
   -2.3688   -2.9434   -1.1932 H   0  0  0  0  0  0  0  0  0  0  0  0
   -1.4133   -1.7672   -0.2187 H   0  0  0  0  0  0  0  0  0  0  0  0
   -2.1475   -3.1784    0.5735 H   0  0  0  0  0  0  0  0  0  0  0  0
   -4.8372   -0.8792   -3.3467 H   0  0  0  0  0  0  0  0  0  0  0  0
   -3.1765    0.5265   -6.4712 H   0  0  0  0  0  0  0  0  0  0  0  0
   -5.9740   -2.4561   -6.2021 H   0  0  0  0  0  0  0  0  0  0  0  0
   -4.2451    1.4299   -7.9998 H   0  0  0  0  0  0  0  0  0  0  0  0
   -5.1130    1.8568  -10.2366 H   0  0  0  0  0  0  0  0  0  0  0  0
   -6.6809    0.2586  -11.2973 H   0  0  0  0  0  0  0  0  0  0  0  0
   -7.3700   -1.7778  -10.0580 H   0  0  0  0  0  0  0  0  0  0  0  0
   -1.3587    0.9341   -5.1648 H   0  0  0  0  0  0  0  0  0  0  0  0
   -0.3773    1.2533   -2.9699 H   0  0  0  0  0  0  0  0  0  0  0  0
   -2.9363    2.3632   -0.1675 H   0  0  0  0  0  0  0  0  0  0  0  0
   -1.2703    2.9755    1.7810 H   0  0  0  0  0  0  0  0  0  0  0  0
    1.9668    5.1492    3.1450 H   0  0  0  0  0  0  0  0  0  0  0  0
    3.1572    6.1034    1.1426 H   0  0  0  0  0  0  0  0  0  0  0  0
    3.5019    4.3420    1.2741 H   0  0  0  0  0  0  0  0  0  0  0  0
    2.3030    4.9295    0.0651 H   0  0  0  0  0  0  0  0  0  0  0  0
   -0.2962    5.8846    2.6562 H   0  0  0  0  0  0  0  0  0  0  0  0
    0.9224    7.0145    1.9605 H   0  0  0  0  0  0  0  0  0  0  0  0
    0.0365    5.8587    0.8795 H   0  0  0  0  0  0  0  0  0  0  0  0
    2.9904    3.4117    3.7566 H   0  0  0  0  0  0  0  0  0  0  0  0
    4.3234    2.4009    5.1556 H   0  0  0  0  0  0  0  0  0  0  0  0
    5.9014   -1.3178    5.5797 H   0  0  0  0  0  0  0  0  0  0  0  0
    7.4810   -0.0668    9.3727 H   0  0  0  0  0  0  0  0  0  0  0  0
    6.2856    1.7290   10.6048 H   0  0  0  0  0  0  0  0  0  0  0  0
    4.4120    2.9230    9.5056 H   0  0  0  0  0  0  0  0  0  0  0  0
    3.7642    2.3489    7.2199 H   0  0  0  0  0  0  0  0  0  0  0  0
    3.1929   -0.8668    3.4856 H   0  0  0  0  0  0  0  0  0  0  0  0
    1.4070   -0.8486    1.8145 H   0  0  0  0  0  0  0  0  0  0  0  0
    5.2006   -0.8510    4.0352 H   0  0  0  0  0  0  0  0  0  0  0  0
   -4.8288   -2.2344   -4.8996 H   0  0  0  0  0  0  0  0  0  0  0  0
  1 44  1  0  0  0  0
  1 45  1  0  0  0  0
  1 46  1  0  0  0  0
  2  1  1  0  0  0  0
  2 47  1  0  0  0  0
  3  2  1  0  0  0  0
  3 48  1  0  0  0  0
  3 49  1  0  0  0  0
  3 50  1  0  0  0  0
  4  2  1  0  0  0  0
  5  4  1  0  0  0  0
  6  5  2  0  0  0  0
  6 51  1  0  0  0  0
  7  6  1  0  0  0  0
  8  7  1  0  0  0  0
  8 52  1  0  0  0  0
  9  8  1  0  0  0  0
 10  9  2  0  0  0  0
 10 53  1  0  0  0  0
 10 79  1  0  0  0  0
 11  9  1  0  0  0  0
 12 11  2  0  0  0  0
 12 54  1  0  0  0  0
 13 12  1  0  0  0  0
 13 55  1  0  0  0  0
 14 13  2  0  0  0  0
 14 56  1  0  0  0  0
 15 14  1  0  0  0  0
 15 57  1  0  0  0  0
 16 15  2  0  0  0  0
 16 11  1  0  0  0  0
 17  7  2  0  0  0  0
 17 58  1  0  0  0  0
 18 17  1  0  0  0  0
 18 59  1  0  0  0  0
 19 18  2  0  0  0  0
 19  5  1  0  0  0  0
 20 19  1  0  0  0  0
 21 20  2  0  0  0  0
 21 60  1  0  0  0  0
 22 21  1  0  0  0  0
 22 61  1  0  0  0  0
 23 22  2  0  0  0  0
 24 23  1  0  0  0  0
 24 20  1  0  0  0  0
 25 23  1  0  0  0  0
 26 25  2  0  0  0  0
 27 26  1  0  0  0  0
 28 27  1  0  0  0  0
 28 62  1  0  0  0  0
 29 28  1  0  0  0  0
 29 63  1  0  0  0  0
 29 64  1  0  0  0  0
 29 65  1  0  0  0  0
 30 28  1  0  0  0  0
 30 66  1  0  0  0  0
 30 67  1  0  0  0  0
 30 68  1  0  0  0  0
 31 26  1  0  0  0  0
 31 69  1  0  0  0  0
 32 31  2  0  0  0  0
 33 32  1  0  0  0  0
 33 70  1  0  0  0  0
 34 33  1  0  0  0  0
 35 34  2  0  0  0  0
 35 71  1  0  0  0  0
 35 78  1  0  0  0  0
 36 34  1  0  0  0  0
 37 36  2  0  0  0  0
 38 37  1  0  0  0  0
 38 72  1  0  0  0  0
 39 38  2  0  0  0  0
 39 73  1  0  0  0  0
 40 39  1  0  0  0  0
 40 74  1  0  0  0  0
 41 40  2  0  0  0  0
 41 36  1  0  0  0  0
 41 75  1  0  0  0  0
 42 32  1  0  0  0  0
 42 76  1  0  0  0  0
 43 42  2  0  0  0  0
 43 25  1  0  0  0  0
 43 77  1  0  0  0  0
M  END
>  <MOL Chiral Flag>
0

>  <energy>
197.91280916093928

$$$$
