>555.sdf
 OpenBabel10062215203D

 71 74  0  0  0  0  0  0  0  0999 V2000
    0.9939    5.8308    3.1747 C   0  0  0  0  0  0  0  0  0  0  0  0
    1.0499    4.8684    2.1424 O   0  0  0  0  0  0  0  0  0  0  0  0
    0.0688    5.1276    1.1605 C   0  0  1  0  0  0  0  0  0  0  0  0
    0.6561    6.0803    0.1402 C   0  0  2  0  0  0  0  0  0  0  0  0
    0.1273    7.3593    0.3550 O   0  0  0  0  0  0  0  0  0  0  0  0
   -0.7182    7.1774   -0.7410 C   0  0  0  0  0  0  0  0  0  0  0  0
   -2.2076    7.1906   -0.3238 C   0  0  0  0  0  0  0  0  0  0  0  0
   -0.4745    8.3054   -1.7627 C   0  0  0  0  0  0  0  0  0  0  0  0
   -0.0268    5.8398   -1.1994 C   0  0  2  0  0  0  0  0  0  0  0  0
   -0.3007    4.4368   -1.0429 O   0  0  0  0  0  0  0  0  0  0  0  0
   -0.4003    3.9347    0.2840 C   0  0  2  0  0  0  0  0  0  0  0  0
   -1.9571    3.6922    0.3569 C   0  0  0  0  0  0  0  0  0  0  0  0
   -2.4624    3.3847    1.6180 O   0  0  0  0  0  0  0  0  0  0  0  0
    0.3763    2.4882    0.4297 C   0  0  1  0  0  0  0  0  0  0  0  0
    1.0801    2.0551   -0.8875 C   0  0  0  0  0  0  0  0  0  0  0  0
    0.2450    2.0447   -2.1474 C   0  0  0  0  0  0  0  0  0  0  0  0
    0.7458    2.2597   -3.2411 O   0  0  0  0  0  0  0  0  0  0  0  0
   -1.0923    1.8439   -2.0595 O   0  0  0  0  0  0  0  0  0  0  0  0
   -1.9171    1.7465   -3.1610 C   0  0  0  0  0  0  0  0  0  0  0  0
    2.3826    1.6067   -0.8925 C   0  0  0  0  0  0  0  0  0  0  0  0
    3.0491    1.0368   -2.1560 C   0  0  0  0  0  0  0  0  0  0  0  0
    3.1323    1.5172    0.3355 N   0  0  0  0  0  0  0  0  0  0  0  0
    2.5434    1.8391    1.6108 C   0  0  0  0  0  0  0  0  0  0  0  0
    3.4238    1.6942    2.8599 C   0  0  0  0  0  0  0  0  0  0  0  0
    1.2319    2.2485    1.7141 C   0  0  0  0  0  0  0  0  0  0  0  0
    0.5869    2.4280    3.0898 C   0  0  0  0  0  0  0  0  0  0  0  0
    1.2204    2.2568    4.1193 O   0  0  0  0  0  0  0  0  0  0  0  0
   -0.7077    2.7888    3.1867 O   0  0  0  0  0  0  0  0  0  0  0  0
   -1.3931    2.9973    4.3721 C   0  0  0  0  0  0  0  0  0  0  0  0
    4.3217    0.7051    0.3402 C   0  0  0  0  0  0  0  0  0  0  0  0
    4.2883   -0.5578    0.9637 C   0  0  0  0  0  0  0  0  0  0  0  0
    5.4234   -1.3667    0.9961 C   0  0  0  0  0  0  0  0  0  0  0  0
    6.6170   -0.9274    0.4101 C   0  0  0  0  0  0  0  0  0  0  0  0
    7.8456   -1.7894    0.4578 C   0  0  0  0  0  0  0  0  0  0  0  0
    6.6579    0.3283   -0.2192 C   0  0  0  0  0  0  0  0  0  0  0  0
    5.5146    1.1406   -0.2591 C   0  0  0  0  0  0  0  0  0  0  0  0
    1.8075    5.6150    3.8967 H   0  0  0  0  0  0  0  0  0  0  0  0
    0.0357    5.7632    3.7342 H   0  0  0  0  0  0  0  0  0  0  0  0
    1.1674    6.8589    2.7884 H   0  0  0  0  0  0  0  0  0  0  0  0
   -0.8569    5.5492    1.6109 H   0  0  0  0  0  0  0  0  0  0  0  0
    1.7578    6.0027    0.0040 H   0  0  0  0  0  0  0  0  0  0  0  0
   -2.4954    8.2141    0.0009 H   0  0  0  0  0  0  0  0  0  0  0  0
   -2.4289    6.5636    0.5514 H   0  0  0  0  0  0  0  0  0  0  0  0
   -2.8583    6.8988   -1.1744 H   0  0  0  0  0  0  0  0  0  0  0  0
   -0.7791    9.2851   -1.3326 H   0  0  0  0  0  0  0  0  0  0  0  0
   -1.0716    8.1287   -2.6830 H   0  0  0  0  0  0  0  0  0  0  0  0
    0.5994    8.3677   -2.0354 H   0  0  0  0  0  0  0  0  0  0  0  0
   -0.7028    5.7967   -2.0816 H   0  0  0  0  0  0  0  0  0  0  0  0
   -2.2731    2.9205   -0.3722 H   0  0  0  0  0  0  0  0  0  0  0  0
   -2.5181    4.5629   -0.0056 H   0  0  0  0  0  0  0  0  0  0  0  0
   -2.6644    2.4118    1.6237 H   0  0  0  0  0  0  0  0  0  0  0  0
   -0.4232    1.7227    0.5246 H   0  0  0  0  0  0  0  0  0  0  0  0
   -2.9586    1.5746   -2.8214 H   0  0  0  0  0  0  0  0  0  0  0  0
   -1.6046    0.8884   -3.7954 H   0  0  0  0  0  0  0  0  0  0  0  0
   -1.8810    2.6846   -3.7546 H   0  0  0  0  0  0  0  0  0  0  0  0
    2.4628    0.9213   -3.0736 H   0  0  0  0  0  0  0  0  0  0  0  0
    3.3651   -0.0085   -1.9534 H   0  0  0  0  0  0  0  0  0  0  0  0
    3.9411    1.6393   -2.4173 H   0  0  0  0  0  0  0  0  0  0  0  0
    4.4824    1.4456    2.6582 H   0  0  0  0  0  0  0  0  0  0  0  0
    3.0413    0.8899    3.5221 H   0  0  0  0  0  0  0  0  0  0  0  0
    3.4819    2.6681    3.3905 H   0  0  0  0  0  0  0  0  0  0  0  0
   -1.7652    4.0422    4.3954 H   0  0  0  0  0  0  0  0  0  0  0  0
   -0.7706    2.8281    5.2760 H   0  0  0  0  0  0  0  0  0  0  0  0
   -2.2622    2.3098    4.4105 H   0  0  0  0  0  0  0  0  0  0  0  0
    3.3731   -0.9119    1.4221 H   0  0  0  0  0  0  0  0  0  0  0  0
    5.3711   -2.3335    1.4824 H   0  0  0  0  0  0  0  0  0  0  0  0
    7.6522   -2.7487    0.9856 H   0  0  0  0  0  0  0  0  0  0  0  0
    8.6550   -1.2553    0.9984 H   0  0  0  0  0  0  0  0  0  0  0  0
    8.1844   -2.0214   -0.5731 H   0  0  0  0  0  0  0  0  0  0  0  0
    7.5771    0.6765   -0.6734 H   0  0  0  0  0  0  0  0  0  0  0  0
    5.5632    2.1094   -0.7378 H   0  0  0  0  0  0  0  0  0  0  0  0
  1 37  1  0  0  0  0
  1 38  1  0  0  0  0
  1 39  1  0  0  0  0
  2  1  1  0  0  0  0
  3  2  1  0  0  0  0
  3 40  1  1  0  0  0
  4  3  1  0  0  0  0
  4 41  1  6  0  0  0
  5  4  1  0  0  0  0
  6  5  1  0  0  0  0
  7  6  1  0  0  0  0
  7 42  1  0  0  0  0
  7 43  1  0  0  0  0
  7 44  1  0  0  0  0
  8  6  1  0  0  0  0
  8 45  1  0  0  0  0
  8 46  1  0  0  0  0
  8 47  1  0  0  0  0
  9  6  1  0  0  0  0
  9  4  1  0  0  0  0
  9 48  1  6  0  0  0
 10  9  1  0  0  0  0
 11 10  1  0  0  0  0
 11  3  1  0  0  0  0
 11 12  1  1  0  0  0
 12 49  1  0  0  0  0
 12 50  1  0  0  0  0
 13 12  1  0  0  0  0
 13 51  1  0  0  0  0
 14 11  1  0  0  0  0
 14 52  1  1  0  0  0
 15 14  1  0  0  0  0
 16 15  1  0  0  0  0
 17 16  2  0  0  0  0
 18 16  1  0  0  0  0
 19 18  1  0  0  0  0
 19 53  1  0  0  0  0
 19 54  1  0  0  0  0
 19 55  1  0  0  0  0
 20 15  2  0  0  0  0
 21 20  1  0  0  0  0
 21 56  1  0  0  0  0
 21 57  1  0  0  0  0
 21 58  1  0  0  0  0
 22 20  1  0  0  0  0
 23 22  1  0  0  0  0
 24 23  1  0  0  0  0
 24 59  1  0  0  0  0
 24 60  1  0  0  0  0
 24 61  1  0  0  0  0
 25 23  2  0  0  0  0
 25 14  1  0  0  0  0
 26 25  1  0  0  0  0
 27 26  2  0  0  0  0
 28 26  1  0  0  0  0
 29 28  1  0  0  0  0
 29 62  1  0  0  0  0
 29 63  1  0  0  0  0
 29 64  1  0  0  0  0
 30 22  1  0  0  0  0
 31 30  2  0  0  0  0
 31 65  1  0  0  0  0
 32 31  1  0  0  0  0
 32 66  1  0  0  0  0
 33 32  2  0  0  0  0
 34 33  1  0  0  0  0
 34 67  1  0  0  0  0
 34 68  1  0  0  0  0
 34 69  1  0  0  0  0
 35 33  1  0  0  0  0
 35 70  1  0  0  0  0
 36 35  2  0  0  0  0
 36 30  1  0  0  0  0
 36 71  1  0  0  0  0
M  END
>  <MOL Chiral Flag>
0

>  <energy>
199.95128861877117

$$$$
