>558.sdf
 OpenBabel10062215213D

 51 53  0  0  0  0  0  0  0  0999 V2000
    3.3552   -0.2324   -4.7564 C   0  0  0  0  0  0  0  0  0  0  0  0
    3.9437   -0.5261   -3.5427 O   0  0  0  0  0  0  0  0  0  0  0  0
    3.2771   -0.9067   -2.4184 C   0  0  0  0  0  0  0  0  0  0  0  0
    1.8875   -1.0971   -2.4129 C   0  0  0  0  0  0  0  0  0  0  0  0
    1.2166   -1.4873   -1.2489 C   0  0  0  0  0  0  0  0  0  0  0  0
   -0.2438   -1.6982   -1.3500 C   0  0  0  0  0  0  0  0  0  0  0  0
   -0.9970   -2.0004   -0.3483 N   0  0  0  0  0  0  0  0  0  0  0  0
   -2.3473   -2.2005   -0.5637 N   0  0  0  0  0  0  0  0  0  0  0  0
   -3.2338   -2.2705    0.4682 C   0  0  0  0  0  0  0  0  0  0  0  0
   -2.8221   -2.1607    1.6136 O   0  0  0  0  0  0  0  0  0  0  0  0
   -4.7214   -2.4207    0.2114 C   0  0  0  0  0  0  0  0  0  0  0  0
   -5.6692   -2.1910    1.2505 C   0  0  0  0  0  0  0  0  0  0  0  0
   -5.2165   -1.8519    2.4806 O   0  0  0  0  0  0  0  0  0  0  0  0
   -7.0667   -2.3003    0.9716 C   0  0  0  0  0  0  0  0  0  0  0  0
   -8.1534   -2.0500    1.9900 C   0  0  0  0  0  0  0  0  0  0  0  0
   -7.4851   -2.6478   -0.3188 C   0  0  0  0  0  0  0  0  0  0  0  0
   -6.5623   -2.8871   -1.3244 C   0  0  0  0  0  0  0  0  0  0  0  0
   -5.2011   -2.7755   -1.0722 C   0  0  0  0  0  0  0  0  0  0  0  0
    1.9452   -1.6730   -0.0618 C   0  0  0  0  0  0  0  0  0  0  0  0
    3.3387   -1.4896   -0.0583 C   0  0  0  0  0  0  0  0  0  0  0  0
    4.0096   -1.1163   -1.2446 C   0  0  0  0  0  0  0  0  0  0  0  0
    5.3576   -0.9769   -1.3180 O   0  0  0  0  0  0  0  0  0  0  0  0
    6.2814   -1.0896   -0.3016 C   0  0  0  0  0  0  0  0  0  0  0  0
    7.6355   -1.2109   -0.9445 C   0  0  0  0  0  0  0  0  0  0  0  0
    8.6402   -0.2532   -0.7276 C   0  0  0  0  0  0  0  0  0  0  0  0
    9.8841   -0.3880   -1.3583 C   0  0  0  0  0  0  0  0  0  0  0  0
   10.1306   -1.4758   -2.2025 C   0  0  0  0  0  0  0  0  0  0  0  0
    9.1360   -2.4317   -2.4189 C   0  0  0  0  0  0  0  0  0  0  0  0
    7.8937   -2.3009   -1.7946 C   0  0  0  0  0  0  0  0  0  0  0  0
    2.8264   -1.1241   -5.1551 H   0  0  0  0  0  0  0  0  0  0  0  0
    4.1423    0.0641   -5.4786 H   0  0  0  0  0  0  0  0  0  0  0  0
    2.6452    0.6155   -4.6426 H   0  0  0  0  0  0  0  0  0  0  0  0
    1.3179   -0.9496   -3.3206 H   0  0  0  0  0  0  0  0  0  0  0  0
   -0.6954   -1.5842   -2.3332 H   0  0  0  0  0  0  0  0  0  0  0  0
   -2.6842   -2.2310   -1.5313 H   0  0  0  0  0  0  0  0  0  0  0  0
   -5.7693   -1.6759    3.2484 H   0  0  0  0  0  0  0  0  0  0  0  0
   -8.7758   -2.9639    2.0919 H   0  0  0  0  0  0  0  0  0  0  0  0
   -7.8129   -1.7724    2.9996 H   0  0  0  0  0  0  0  0  0  0  0  0
   -8.8016   -1.2230    1.6281 H   0  0  0  0  0  0  0  0  0  0  0  0
   -8.5413   -2.7336   -0.5456 H   0  0  0  0  0  0  0  0  0  0  0  0
   -6.9047   -3.1594   -2.3150 H   0  0  0  0  0  0  0  0  0  0  0  0
   -4.5430   -2.9830   -1.8977 H   0  0  0  0  0  0  0  0  0  0  0  0
    1.4445   -1.9740    0.8502 H   0  0  0  0  0  0  0  0  0  0  0  0
    3.8867   -1.6534    0.8598 H   0  0  0  0  0  0  0  0  0  0  0  0
    6.2078   -0.2053    0.3686 H   0  0  0  0  0  0  0  0  0  0  0  0
    6.1084   -2.0140    0.2899 H   0  0  0  0  0  0  0  0  0  0  0  0
    8.4602    0.5961   -0.0810 H   0  0  0  0  0  0  0  0  0  0  0  0
   10.6571    0.3518   -1.1958 H   0  0  0  0  0  0  0  0  0  0  0  0
   11.0915   -1.5781   -2.6904 H   0  0  0  0  0  0  0  0  0  0  0  0
    9.3253   -3.2735   -3.0729 H   0  0  0  0  0  0  0  0  0  0  0  0
    7.1276   -3.0461   -1.9728 H   0  0  0  0  0  0  0  0  0  0  0  0
  1 30  1  0  0  0  0
  1 31  1  0  0  0  0
  1 32  1  0  0  0  0
  2  1  1  0  0  0  0
  3  2  1  0  0  0  0
  4  3  2  0  0  0  0
  4 33  1  0  0  0  0
  5  4  1  0  0  0  0
  6  5  1  0  0  0  0
  6 34  1  0  0  0  0
  7  6  2  0  0  0  0
  8  7  1  0  0  0  0
  8 35  1  0  0  0  0
  9  8  1  0  0  0  0
 10  9  2  0  0  0  0
 11  9  1  0  0  0  0
 12 11  2  0  0  0  0
 13 12  1  0  0  0  0
 13 36  1  0  0  0  0
 14 12  1  0  0  0  0
 15 14  1  0  0  0  0
 15 37  1  0  0  0  0
 15 38  1  0  0  0  0
 15 39  1  0  0  0  0
 16 14  2  0  0  0  0
 16 40  1  0  0  0  0
 17 16  1  0  0  0  0
 17 41  1  0  0  0  0
 18 17  2  0  0  0  0
 18 11  1  0  0  0  0
 18 42  1  0  0  0  0
 19  5  2  0  0  0  0
 19 43  1  0  0  0  0
 20 19  1  0  0  0  0
 20 44  1  0  0  0  0
 21 20  2  0  0  0  0
 21  3  1  0  0  0  0
 22 21  1  0  0  0  0
 23 22  1  0  0  0  0
 23 45  1  0  0  0  0
 23 46  1  0  0  0  0
 24 23  1  0  0  0  0
 25 24  2  0  0  0  0
 25 47  1  0  0  0  0
 26 25  1  0  0  0  0
 26 48  1  0  0  0  0
 27 26  2  0  0  0  0
 27 49  1  0  0  0  0
 28 27  1  0  0  0  0
 28 50  1  0  0  0  0
 29 28  2  0  0  0  0
 29 24  1  0  0  0  0
 29 51  1  0  0  0  0
M  END
>  <MOL Chiral Flag>
0

>  <energy>
163.09436084370941

$$$$
