>559.sdf
 OpenBabel10062215223D

 23 24  0  0  0  0  0  0  0  0999 V2000
   -5.1205    2.1538   -2.2965 O   0  5  0  0  0  0  0  0  0  0  0  0
   -5.2676    1.2807   -1.3239 N   0  3  0  0  0  0  0  0  0  0  0  0
   -6.3639    0.9796   -0.9602 O   0  0  0  0  0  0  0  0  0  0  0  0
   -4.1268    0.6939   -0.7232 C   0  0  0  0  0  0  0  0  0  0  0  0
   -4.1343   -0.2470    0.2892 C   0  0  0  0  0  0  0  0  0  0  0  0
   -2.8095   -0.5287    0.5446 C   0  0  0  0  0  0  0  0  0  0  0  0
   -2.0769    0.2620   -0.3252 C   0  0  0  0  0  0  0  0  0  0  0  0
   -2.8917    0.9794   -1.0655 O   0  0  0  0  0  0  0  0  0  0  0  0
   -0.6126    0.3262   -0.4263 C   0  0  0  0  0  0  0  0  0  0  0  0
    0.1231   -0.4612    0.2818 N   0  0  0  0  0  0  0  0  0  0  0  0
    1.5040   -0.4183    0.2555 N   0  0  0  0  0  0  0  0  0  0  0  0
    2.3116    0.6036   -0.3564 C   0  0  0  0  0  0  0  0  0  0  0  0
    3.7545    0.1167   -0.0091 C   0  0  0  0  0  0  0  0  0  0  0  0
    3.5759   -1.0644    0.6997 O   0  0  0  0  0  0  0  0  0  0  0  0
    2.2769   -1.3271    0.8342 C   0  0  0  0  0  0  0  0  0  0  0  0
    1.8456   -2.3033    1.4277 O   0  0  0  0  0  0  0  0  0  0  0  0
   -4.9968   -0.6760    0.7818 H   0  0  0  0  0  0  0  0  0  0  0  0
   -2.4256   -1.2219    1.2816 H   0  0  0  0  0  0  0  0  0  0  0  0
   -0.1704    1.0415   -1.1118 H   0  0  0  0  0  0  0  0  0  0  0  0
    2.1449    0.6241   -1.4547 H   0  0  0  0  0  0  0  0  0  0  0  0
    2.0964    1.5905    0.1080 H   0  0  0  0  0  0  0  0  0  0  0  0
    4.3418   -0.0777   -0.9315 H   0  0  0  0  0  0  0  0  0  0  0  0
    4.2787    0.8564    0.6335 H   0  0  0  0  0  0  0  0  0  0  0  0
  2  1  1  0  0  0  0
  3  2  2  0  0  0  0
  4  2  1  0  0  0  0
  5  4  2  0  0  0  0
  5 17  1  0  0  0  0
  6  5  1  0  0  0  0
  6 18  1  0  0  0  0
  7  6  2  0  0  0  0
  8  7  1  0  0  0  0
  8  4  1  0  0  0  0
  9  7  1  0  0  0  0
  9 19  1  0  0  0  0
 10  9  2  0  0  0  0
 11 10  1  0  0  0  0
 12 11  1  0  0  0  0
 12 20  1  0  0  0  0
 12 21  1  0  0  0  0
 13 12  1  0  0  0  0
 13 22  1  0  0  0  0
 13 23  1  0  0  0  0
 14 13  1  0  0  0  0
 15 14  1  0  0  0  0
 15 11  1  0  0  0  0
 16 15  2  0  0  0  0
M  CHG  2   1  -1   2   1
M  END
>  <MOL Chiral Flag>
0

>  <energy>
90.873956053521908

$$$$
