>564.sdf
 OpenBabel10102216453D

 47 48  0  0  0  0  0  0  0  0999 V2000
   -3.7689    0.0821   -0.3051 C   0  0  0  0  0  0  0  0  0  0  0  0
   -4.7924   -0.9460    0.1656 C   0  0  0  0  0  0  0  0  0  0  0  0
   -4.3080   -1.9366    1.2472 C   0  0  2  0  0  0  0  0  0  0  0  0
   -4.0320   -1.2642    2.5997 C   0  0  0  0  0  0  0  0  0  0  0  0
   -3.1324   -2.8092    0.8365 C   0  0  0  0  0  0  0  0  0  0  0  0
   -3.3357   -4.0063    0.6802 O   0  0  0  0  0  0  0  0  0  0  0  0
   -1.8540   -2.3160    0.7498 N   0  0  0  0  0  0  0  0  0  0  0  0
   -0.7197   -3.2202    0.5762 C   0  0  1  0  0  0  0  0  0  0  0  0
   -0.6702   -3.8703   -0.8261 C   0  0  0  0  0  0  0  0  0  0  0  0
    0.0888   -2.9680   -1.7701 C   0  0  0  0  0  0  0  0  0  0  0  0
    1.4880   -2.8391   -1.2241 C   0  0  0  0  0  0  0  0  0  0  0  0
    2.4327   -3.0135   -1.9788 O   0  0  0  0  0  0  0  0  0  0  0  0
    1.6868   -2.5237    0.1003 N   0  0  0  0  0  0  0  0  0  0  0  0
    3.0440   -2.2843    0.6349 C   0  0  0  0  0  0  0  0  0  0  0  0
    3.9358   -1.2997   -0.1515 C   0  0  0  0  0  0  0  0  0  0  0  0
    3.3791    0.0847   -0.3344 C   0  0  0  0  0  0  0  0  0  0  0  0
    3.1204    0.9096    0.7721 C   0  0  0  0  0  0  0  0  0  0  0  0
    2.6528    2.2144    0.5785 C   0  0  0  0  0  0  0  0  0  0  0  0
    2.4404    2.6997   -0.7159 C   0  0  0  0  0  0  0  0  0  0  0  0
    2.6931    1.8820   -1.8195 C   0  0  0  0  0  0  0  0  0  0  0  0
    3.1620    0.5806   -1.6319 C   0  0  0  0  0  0  0  0  0  0  0  0
    0.6131   -2.5712    0.9723 C   0  0  0  0  0  0  0  0  0  0  0  0
    0.7461   -2.2155    2.1358 O   0  0  0  0  0  0  0  0  0  0  0  0
   -2.9216   -0.4197   -0.8138 H   0  0  0  0  0  0  0  0  0  0  0  0
   -3.4000    0.6951    0.5417 H   0  0  0  0  0  0  0  0  0  0  0  0
   -4.2533    0.7580   -1.0414 H   0  0  0  0  0  0  0  0  0  0  0  0
   -5.1348   -1.5232   -0.7209 H   0  0  0  0  0  0  0  0  0  0  0  0
   -5.6765   -0.4024    0.5687 H   0  0  0  0  0  0  0  0  0  0  0  0
   -5.1765   -2.6154    1.4146 H   0  0  0  0  0  0  0  0  0  0  0  0
   -3.7763   -2.0364    3.3579 H   0  0  0  0  0  0  0  0  0  0  0  0
   -3.1924   -0.5432    2.5392 H   0  0  0  0  0  0  0  0  0  0  0  0
   -4.9371   -0.7257    2.9518 H   0  0  0  0  0  0  0  0  0  0  0  0
   -1.6765   -1.3215    0.9526 H   0  0  0  0  0  0  0  0  0  0  0  0
   -0.8694   -4.0521    1.3010 H   0  0  0  0  0  0  0  0  0  0  0  0
   -1.6847   -4.1083   -1.2065 H   0  0  0  0  0  0  0  0  0  0  0  0
   -0.1039   -4.8277   -0.7710 H   0  0  0  0  0  0  0  0  0  0  0  0
    0.1093   -3.3755   -2.8044 H   0  0  0  0  0  0  0  0  0  0  0  0
   -0.4047   -1.9712   -1.7925 H   0  0  0  0  0  0  0  0  0  0  0  0
    3.0142   -1.9498    1.6938 H   0  0  0  0  0  0  0  0  0  0  0  0
    3.5865   -3.2547    0.6367 H   0  0  0  0  0  0  0  0  0  0  0  0
    4.9075   -1.2151    0.3829 H   0  0  0  0  0  0  0  0  0  0  0  0
    4.1877   -1.7349   -1.1373 H   0  0  0  0  0  0  0  0  0  0  0  0
    3.2958    0.5489    1.7777 H   0  0  0  0  0  0  0  0  0  0  0  0
    2.4629    2.8529    1.4311 H   0  0  0  0  0  0  0  0  0  0  0  0
    2.0848    3.7108   -0.8647 H   0  0  0  0  0  0  0  0  0  0  0  0
    2.5340    2.2582   -2.8219 H   0  0  0  0  0  0  0  0  0  0  0  0
    3.3656   -0.0381   -2.4976 H   0  0  0  0  0  0  0  0  0  0  0  0
  1 24  1  0  0  0  0
  1 25  1  0  0  0  0
  1 26  1  0  0  0  0
  2  1  1  0  0  0  0
  2 27  1  0  0  0  0
  2 28  1  0  0  0  0
  3  2  1  0  0  0  0
  3 29  1  1  0  0  0
  4  3  1  0  0  0  0
  4 30  1  0  0  0  0
  4 31  1  0  0  0  0
  4 32  1  0  0  0  0
  5  3  1  0  0  0  0
  6  5  2  0  0  0  0
  7  5  1  0  0  0  0
  7 33  1  0  0  0  0
  8  7  1  0  0  0  0
  8 34  1  1  0  0  0
  9  8  1  0  0  0  0
  9 35  1  0  0  0  0
  9 36  1  0  0  0  0
 10  9  1  0  0  0  0
 10 37  1  0  0  0  0
 10 38  1  0  0  0  0
 11 10  1  0  0  0  0
 12 11  2  0  0  0  0
 13 11  1  0  0  0  0
 14 13  1  0  0  0  0
 14 39  1  0  0  0  0
 14 40  1  0  0  0  0
 15 14  1  0  0  0  0
 15 41  1  0  0  0  0
 15 42  1  0  0  0  0
 16 15  1  0  0  0  0
 17 16  2  0  0  0  0
 17 43  1  0  0  0  0
 18 17  1  0  0  0  0
 18 44  1  0  0  0  0
 19 18  2  0  0  0  0
 19 45  1  0  0  0  0
 20 19  1  0  0  0  0
 20 46  1  0  0  0  0
 21 20  2  0  0  0  0
 21 16  1  0  0  0  0
 21 47  1  0  0  0  0
 22 13  1  0  0  0  0
 22  8  1  0  0  0  0
 23 22  2  0  0  0  0
M  END
>  <MOL Chiral Flag>
0

>  <energy>
-5.7729545401201392

$$$$
