>57.sdf
 OpenBabel10052218143D

 41 43  0  0  0  0  0  0  0  0999 V2000
    2.6368    1.8214    1.8347 C   0  0  0  0  0  0  0  0  0  0  0  0
    2.1757    2.1872    0.4235 C   0  0  0  0  0  0  0  0  0  0  0  0
    0.8410    1.6703    0.1392 N   0  0  0  0  0  0  0  0  0  0  0  0
    0.0990    2.3093   -0.9409 C   0  0  0  0  0  0  0  0  0  0  0  0
   -1.3670    2.4078   -0.6161 C   0  0  0  0  0  0  0  0  0  0  0  0
   -1.7974    3.2079    0.4532 C   0  0  0  0  0  0  0  0  0  0  0  0
   -3.1602    3.3142    0.7468 C   0  0  0  0  0  0  0  0  0  0  0  0
   -4.1000    2.6178   -0.0209 C   0  0  0  0  0  0  0  0  0  0  0  0
   -5.8093    2.7543    0.3478 Cl  0  0  0  0  0  0  0  0  0  0  0  0
   -3.6759    1.8143   -1.0843 C   0  0  0  0  0  0  0  0  0  0  0  0
   -2.3147    1.7107   -1.3845 C   0  0  0  0  0  0  0  0  0  0  0  0
    0.5911    0.2769    0.3176 C   0  0  0  0  0  0  0  0  0  0  0  0
   -0.3981   -0.1513    1.2111 C   0  0  0  0  0  0  0  0  0  0  0  0
   -0.6717   -1.5129    1.3555 C   0  0  0  0  0  0  0  0  0  0  0  0
    0.0271   -2.4566    0.5940 C   0  0  0  0  0  0  0  0  0  0  0  0
   -0.2695   -3.7758    0.7213 N   0  0  0  0  0  0  0  0  0  0  0  0
    0.3732   -4.7131   -0.0204 C   0  0  0  0  0  0  0  0  0  0  0  0
    0.0360   -6.0774    0.1188 N   0  0  0  0  0  0  0  0  0  0  0  0
    1.3332   -4.3413   -0.9049 N   0  0  0  0  0  0  0  0  0  0  0  0
    1.6852   -3.0392   -1.0782 C   0  0  0  0  0  0  0  0  0  0  0  0
    2.6948   -2.7356   -2.0310 N   0  0  0  0  0  0  0  0  0  0  0  0
    1.0259   -2.0409   -0.3170 C   0  0  0  0  0  0  0  0  0  0  0  0
    1.3059   -0.6643   -0.4380 C   0  0  0  0  0  0  0  0  0  0  0  0
    3.6423    2.2551    2.0197 H   0  0  0  0  0  0  0  0  0  0  0  0
    1.9272    2.2311    2.5846 H   0  0  0  0  0  0  0  0  0  0  0  0
    2.7046    0.7203    1.9580 H   0  0  0  0  0  0  0  0  0  0  0  0
    2.1729    3.2975    0.3614 H   0  0  0  0  0  0  0  0  0  0  0  0
    2.9013    1.8008   -0.3238 H   0  0  0  0  0  0  0  0  0  0  0  0
    0.4764    3.3344   -1.1472 H   0  0  0  0  0  0  0  0  0  0  0  0
    0.2572    1.7210   -1.8730 H   0  0  0  0  0  0  0  0  0  0  0  0
   -1.0769    3.7531    1.0502 H   0  0  0  0  0  0  0  0  0  0  0  0
   -3.4852    3.9392    1.5685 H   0  0  0  0  0  0  0  0  0  0  0  0
   -4.4002    1.2727   -1.6796 H   0  0  0  0  0  0  0  0  0  0  0  0
   -1.9997    1.0863   -2.2116 H   0  0  0  0  0  0  0  0  0  0  0  0
   -0.9548    0.5717    1.7940 H   0  0  0  0  0  0  0  0  0  0  0  0
   -1.4382   -1.8341    2.0505 H   0  0  0  0  0  0  0  0  0  0  0  0
   -0.6941   -6.3676    0.7848 H   0  0  0  0  0  0  0  0  0  0  0  0
    0.5126   -6.7902   -0.4526 H   0  0  0  0  0  0  0  0  0  0  0  0
    3.1221   -3.4987   -2.5750 H   0  0  0  0  0  0  0  0  0  0  0  0
    3.0243   -1.7804   -2.2106 H   0  0  0  0  0  0  0  0  0  0  0  0
    2.0472   -0.2961   -1.1256 H   0  0  0  0  0  0  0  0  0  0  0  0
  1 24  1  0  0  0  0
  1 25  1  0  0  0  0
  1 26  1  0  0  0  0
  2  1  1  0  0  0  0
  2 27  1  0  0  0  0
  2 28  1  0  0  0  0
  3  2  1  0  0  0  0
  4  3  1  0  0  0  0
  4 29  1  0  0  0  0
  4 30  1  0  0  0  0
  5  4  1  0  0  0  0
  6  5  2  0  0  0  0
  6 31  1  0  0  0  0
  7  6  1  0  0  0  0
  7 32  1  0  0  0  0
  8  7  2  0  0  0  0
  9  8  1  0  0  0  0
 10  8  1  0  0  0  0
 10 33  1  0  0  0  0
 11 10  2  0  0  0  0
 11  5  1  0  0  0  0
 11 34  1  0  0  0  0
 12  3  1  0  0  0  0
 13 12  2  0  0  0  0
 13 35  1  0  0  0  0
 14 13  1  0  0  0  0
 14 36  1  0  0  0  0
 15 14  2  0  0  0  0
 16 15  1  0  0  0  0
 17 16  2  0  0  0  0
 18 17  1  0  0  0  0
 18 37  1  0  0  0  0
 18 38  1  0  0  0  0
 19 17  1  0  0  0  0
 20 19  2  0  0  0  0
 21 20  1  0  0  0  0
 21 39  1  0  0  0  0
 21 40  1  0  0  0  0
 22 20  1  0  0  0  0
 22 15  1  0  0  0  0
 23 22  2  0  0  0  0
 23 12  1  0  0  0  0
 23 41  1  0  0  0  0
M  END
>  <MOL Chiral Flag>
0

>  <energy>
-78.186755673329657

$$$$
