>575.sdf
 OpenBabel10062215323D

 33 34  0  0  0  0  0  0  0  0999 V2000
    3.7814    0.7656   -0.0541 C   0  0  0  0  0  0  0  0  0  0  0  0
    2.9941   -0.4507    0.3486 C   0  0  0  0  0  0  0  0  0  0  0  0
    1.7075   -0.3084    0.9006 C   0  0  0  0  0  0  0  0  0  0  0  0
    0.9690   -1.4377    1.2897 C   0  0  0  0  0  0  0  0  0  0  0  0
   -0.6800   -1.2497    2.0147 S   0  0  0  0  0  0  0  0  0  0  0  0
   -1.4147   -0.1692    0.7407 C   0  0  0  0  0  0  0  0  0  0  0  0
   -1.7965   -0.6965   -0.5410 C   0  0  0  0  0  0  0  0  0  0  0  0
   -2.3552    0.1720   -1.4988 C   0  0  0  0  0  0  0  0  0  0  0  0
   -2.5745    1.5206   -1.2251 C   0  0  0  0  0  0  0  0  0  0  0  0
   -2.2182    2.0326    0.0191 C   0  0  0  0  0  0  0  0  0  0  0  0
   -1.6353    1.2254    1.0172 C   0  0  0  0  0  0  0  0  0  0  0  0
   -1.2992    1.8465    2.2762 N   0  3  0  0  0  0  0  0  0  0  0  0
   -0.7296    1.1751    3.2508 O   0  5  0  0  0  0  0  0  0  0  0  0
   -1.5364    3.0049    2.4496 O   0  0  0  0  0  0  0  0  0  0  0  0
   -3.2079    2.4354   -2.2485 C   0  0  0  0  0  0  0  0  0  0  0  0
   -2.3476    3.4803   -2.5313 F   0  0  0  0  0  0  0  0  0  0  0  0
   -3.4983    1.7744   -3.4301 F   0  0  0  0  0  0  0  0  0  0  0  0
   -4.3862    2.9484   -1.7360 F   0  0  0  0  0  0  0  0  0  0  0  0
   -1.6542   -2.0844   -0.8951 N   0  3  0  0  0  0  0  0  0  0  0  0
   -1.4142   -2.9992    0.0125 O   0  5  0  0  0  0  0  0  0  0  0  0
   -1.8772   -2.4406   -2.0137 O   0  0  0  0  0  0  0  0  0  0  0  0
    1.5381   -2.7196    1.1426 C   0  0  0  0  0  0  0  0  0  0  0  0
    0.6968   -4.1729    1.6733 Cl  0  0  0  0  0  0  0  0  0  0  0  0
    2.8107   -2.8600    0.5847 C   0  0  0  0  0  0  0  0  0  0  0  0
    3.5393   -1.7387    0.1840 C   0  0  0  0  0  0  0  0  0  0  0  0
    5.1422   -1.9743   -0.5067 Cl  0  0  0  0  0  0  0  0  0  0  0  0
    3.2231    1.7038    0.1475 H   0  0  0  0  0  0  0  0  0  0  0  0
    4.0136    0.7222   -1.1389 H   0  0  0  0  0  0  0  0  0  0  0  0
    4.7320    0.7994    0.5201 H   0  0  0  0  0  0  0  0  0  0  0  0
    1.2843    0.6792    1.0314 H   0  0  0  0  0  0  0  0  0  0  0  0
   -2.6451   -0.2191   -2.4648 H   0  0  0  0  0  0  0  0  0  0  0  0
   -2.4015    3.0830    0.2115 H   0  0  0  0  0  0  0  0  0  0  0  0
    3.2396   -3.8479    0.4696 H   0  0  0  0  0  0  0  0  0  0  0  0
  1 27  1  0  0  0  0
  1 28  1  0  0  0  0
  1 29  1  0  0  0  0
  2  1  1  0  0  0  0
  3  2  2  0  0  0  0
  3 30  1  0  0  0  0
  4  3  1  0  0  0  0
  5  4  1  0  0  0  0
  6  5  1  0  0  0  0
  7  6  2  0  0  0  0
  8  7  1  0  0  0  0
  8 31  1  0  0  0  0
  9  8  2  0  0  0  0
 10  9  1  0  0  0  0
 10 32  1  0  0  0  0
 11 10  2  0  0  0  0
 11  6  1  0  0  0  0
 12 11  1  0  0  0  0
 13 12  1  0  0  0  0
 14 12  2  0  0  0  0
 15  9  1  0  0  0  0
 16 15  1  0  0  0  0
 17 15  1  0  0  0  0
 18 15  1  0  0  0  0
 19  7  1  0  0  0  0
 20 19  1  0  0  0  0
 21 19  2  0  0  0  0
 22  4  2  0  0  0  0
 23 22  1  0  0  0  0
 24 22  1  0  0  0  0
 24 33  1  0  0  0  0
 25 24  2  0  0  0  0
 25  2  1  0  0  0  0
 26 25  1  0  0  0  0
M  CHG  4  12   1  13  -1  19   1  20  -1
M  END
>  <MOL Chiral Flag>
0

>  <energy>
106.55489072006428

$$$$
