>577.sdf
 OpenBabel10062215333D

 34 36  0  0  0  0  0  0  0  0999 V2000
   -5.6210   -0.0916   -1.2843 C   0  0  0  0  0  0  0  0  0  0  0  0
   -4.3358    0.4039   -1.3563 O   0  0  0  0  0  0  0  0  0  0  0  0
   -3.3395    0.1196   -0.4773 C   0  0  0  0  0  0  0  0  0  0  0  0
   -3.5869   -0.4085    0.8049 C   0  0  0  0  0  0  0  0  0  0  0  0
   -2.5305   -0.7223    1.6729 C   0  0  0  0  0  0  0  0  0  0  0  0
   -2.8472   -1.1982    2.8983 O   0  0  0  0  0  0  0  0  0  0  0  0
   -1.1880   -0.5193    1.2411 C   0  0  0  0  0  0  0  0  0  0  0  0
    0.0267   -0.8551    2.0433 C   0  0  0  0  0  0  0  0  0  0  0  0
   -0.0222   -1.5835    3.0203 O   0  0  0  0  0  0  0  0  0  0  0  0
    1.3580   -0.3458    1.5628 C   0  0  0  0  0  0  0  0  0  0  0  0
    1.4034   -0.4634    0.0356 C   0  0  1  0  0  0  0  0  0  0  0  0
    0.3067    0.1940   -0.5042 O   0  0  0  0  0  0  0  0  0  0  0  0
   -0.9590    0.0154   -0.0469 C   0  0  0  0  0  0  0  0  0  0  0  0
   -2.0256    0.3456   -0.8796 C   0  0  0  0  0  0  0  0  0  0  0  0
    2.6866    0.1343   -0.4944 C   0  0  0  0  0  0  0  0  0  0  0  0
    2.7148    1.4486   -1.0014 C   0  0  0  0  0  0  0  0  0  0  0  0
    3.9124    2.0028   -1.4568 C   0  0  0  0  0  0  0  0  0  0  0  0
    5.0893    1.2524   -1.4215 C   0  0  0  0  0  0  0  0  0  0  0  0
    5.0715   -0.0546   -0.9265 C   0  0  0  0  0  0  0  0  0  0  0  0
    3.8770   -0.6119   -0.4577 C   0  0  0  0  0  0  0  0  0  0  0  0
   -5.5934   -1.2002   -1.3646 H   0  0  0  0  0  0  0  0  0  0  0  0
   -6.2061    0.3038   -2.1395 H   0  0  0  0  0  0  0  0  0  0  0  0
   -6.1221    0.2151   -0.3439 H   0  0  0  0  0  0  0  0  0  0  0  0
   -4.6002   -0.5749    1.1441 H   0  0  0  0  0  0  0  0  0  0  0  0
   -2.2145   -1.3779    3.6010 H   0  0  0  0  0  0  0  0  0  0  0  0
    2.2014   -0.8712    2.0628 H   0  0  0  0  0  0  0  0  0  0  0  0
    1.4170    0.7360    1.8128 H   0  0  0  0  0  0  0  0  0  0  0  0
    1.3370   -1.5342   -0.2674 H   0  0  0  0  0  0  0  0  0  0  0  0
   -1.8290    0.7455   -1.8668 H   0  0  0  0  0  0  0  0  0  0  0  0
    1.8158    2.0512   -1.0281 H   0  0  0  0  0  0  0  0  0  0  0  0
    3.9270    3.0173   -1.8331 H   0  0  0  0  0  0  0  0  0  0  0  0
    6.0154    1.6857   -1.7753 H   0  0  0  0  0  0  0  0  0  0  0  0
    5.9850   -0.6342   -0.9020 H   0  0  0  0  0  0  0  0  0  0  0  0
    3.8762   -1.6242   -0.0724 H   0  0  0  0  0  0  0  0  0  0  0  0
  1 21  1  0  0  0  0
  1 22  1  0  0  0  0
  1 23  1  0  0  0  0
  2  1  1  0  0  0  0
  3  2  1  0  0  0  0
  4  3  2  0  0  0  0
  4 24  1  0  0  0  0
  5  4  1  0  0  0  0
  6  5  1  0  0  0  0
  6 25  1  0  0  0  0
  7  5  2  0  0  0  0
  8  7  1  0  0  0  0
  9  8  2  0  0  0  0
 10  8  1  0  0  0  0
 10 26  1  0  0  0  0
 10 27  1  0  0  0  0
 11 10  1  0  0  0  0
 11 28  1  6  0  0  0
 12 11  1  0  0  0  0
 13 12  1  0  0  0  0
 13  7  1  0  0  0  0
 14 13  2  0  0  0  0
 14  3  1  0  0  0  0
 14 29  1  0  0  0  0
 15 11  1  0  0  0  0
 16 15  2  0  0  0  0
 16 30  1  0  0  0  0
 17 16  1  0  0  0  0
 17 31  1  0  0  0  0
 18 17  2  0  0  0  0
 18 32  1  0  0  0  0
 19 18  1  0  0  0  0
 19 33  1  0  0  0  0
 20 19  2  0  0  0  0
 20 15  1  0  0  0  0
 20 34  1  0  0  0  0
M  END
>  <MOL Chiral Flag>
0

>  <energy>
49.519958832474401

$$$$
