>579_2.sdf
 OpenBabel10102219293D

 60 62  0  0  0  0  0  0  0  0999 V2000
    2.3177   -3.5610    0.7158 C   0  0  0  0  0  0  0  0  0  0  0  0
    1.8526   -4.2218   -0.5838 C   0  0  0  0  0  0  0  0  0  0  0  0
    0.8099   -3.3687   -1.3418 C   0  0  2  0  0  0  0  0  0  0  0  0
    0.3342   -4.1317   -2.5889 C   0  0  0  0  0  0  0  0  0  0  0  0
    1.4095   -2.0258   -1.7461 C   0  0  0  0  0  0  0  0  0  0  0  0
    2.4152   -2.0497   -2.4432 O   0  0  0  0  0  0  0  0  0  0  0  0
    0.9173   -0.6927   -1.2191 C   0  0  0  0  0  0  0  0  0  0  0  0
   -0.4440   -0.4320   -0.8871 C   0  0  0  0  0  0  0  0  0  0  0  0
   -1.4285   -1.3173   -1.1614 O   0  0  0  0  0  0  0  0  0  0  0  0
   -0.8240    0.8010   -0.3067 C   0  0  0  0  0  0  0  0  0  0  0  0
   -2.2985    1.0031    0.0422 C   0  0  0  0  0  0  0  0  0  0  0  0
   -2.7148    0.1171    1.2372 C   0  0  0  0  0  0  0  0  0  0  0  0
   -4.2075    0.2063    1.6413 C   0  0  0  0  0  0  0  0  0  0  0  0
   -4.6121    1.6150    2.0985 C   0  0  0  0  0  0  0  0  0  0  0  0
   -5.1392   -0.2873    0.5257 C   0  0  0  0  0  0  0  0  0  0  0  0
    0.1501    1.8149   -0.0975 C   0  0  0  0  0  0  0  0  0  0  0  0
   -0.1635    2.9940    0.4916 O   0  0  0  0  0  0  0  0  0  0  0  0
    1.4894    1.6000   -0.4959 C   0  0  0  0  0  0  0  0  0  0  0  0
    1.8706    0.3361   -1.0258 C   0  0  0  0  0  0  0  0  0  0  0  0
    3.1845    0.0778   -1.2863 O   0  0  0  0  0  0  0  0  0  0  0  0
    4.1441    1.0236   -1.2066 C   0  0  0  0  0  0  0  0  0  0  0  0
    5.3153    0.7050   -1.0786 O   0  0  0  0  0  0  0  0  0  0  0  0
    3.7416    2.4523   -1.2669 C   0  0  0  0  0  0  0  0  0  0  0  0
    2.5801    2.6742   -0.2837 C   0  0  1  0  0  0  0  0  0  0  0  0
    2.0924    4.1064   -0.4527 C   0  0  0  0  0  0  0  0  0  0  0  0
    1.5124    4.5356   -1.6637 C   0  0  0  0  0  0  0  0  0  0  0  0
    1.0656    5.8526   -1.8038 C   0  0  0  0  0  0  0  0  0  0  0  0
    1.1913    6.7521   -0.7426 C   0  0  0  0  0  0  0  0  0  0  0  0
    1.7630    6.3366    0.4624 C   0  0  0  0  0  0  0  0  0  0  0  0
    2.2118    5.0207    0.6099 C   0  0  0  0  0  0  0  0  0  0  0  0
    2.8186   -2.5915    0.5107 H   0  0  0  0  0  0  0  0  0  0  0  0
    1.4528   -3.3884    1.3910 H   0  0  0  0  0  0  0  0  0  0  0  0
    3.0431   -4.2257    1.2303 H   0  0  0  0  0  0  0  0  0  0  0  0
    2.7377   -4.4140   -1.2296 H   0  0  0  0  0  0  0  0  0  0  0  0
    1.3983   -5.2028   -0.3220 H   0  0  0  0  0  0  0  0  0  0  0  0
   -0.0370   -3.2450   -0.6400 H   0  0  0  0  0  0  0  0  0  0  0  0
   -0.1178   -5.1028   -2.2943 H   0  0  0  0  0  0  0  0  0  0  0  0
   -0.4279   -3.5537   -3.1499 H   0  0  0  0  0  0  0  0  0  0  0  0
    1.1850   -4.3330   -3.2751 H   0  0  0  0  0  0  0  0  0  0  0  0
   -1.3432   -2.0486   -1.7777 H   0  0  0  0  0  0  0  0  0  0  0  0
   -2.8983    0.7737   -0.8627 H   0  0  0  0  0  0  0  0  0  0  0  0
   -2.5451    2.0433    0.2901 H   0  0  0  0  0  0  0  0  0  0  0  0
   -2.0955    0.4059    2.1151 H   0  0  0  0  0  0  0  0  0  0  0  0
   -2.4928   -0.9479    1.0183 H   0  0  0  0  0  0  0  0  0  0  0  0
   -4.3426   -0.4741    2.5115 H   0  0  0  0  0  0  0  0  0  0  0  0
   -4.5494    2.3479    1.2682 H   0  0  0  0  0  0  0  0  0  0  0  0
   -3.9570    1.9503    2.9305 H   0  0  0  0  0  0  0  0  0  0  0  0
   -5.6604    1.6068    2.4663 H   0  0  0  0  0  0  0  0  0  0  0  0
   -4.8674   -1.3230    0.2301 H   0  0  0  0  0  0  0  0  0  0  0  0
   -5.0870    0.3692   -0.3671 H   0  0  0  0  0  0  0  0  0  0  0  0
   -6.1905   -0.2955    0.8847 H   0  0  0  0  0  0  0  0  0  0  0  0
   -1.0134    3.2365    0.8708 H   0  0  0  0  0  0  0  0  0  0  0  0
    4.5983    3.1351   -1.0736 H   0  0  0  0  0  0  0  0  0  0  0  0
    3.3805    2.6280   -2.3028 H   0  0  0  0  0  0  0  0  0  0  0  0
    2.9735    2.5303    0.7477 H   0  0  0  0  0  0  0  0  0  0  0  0
    1.4019    3.8497   -2.4938 H   0  0  0  0  0  0  0  0  0  0  0  0
    0.6203    6.1753   -2.7360 H   0  0  0  0  0  0  0  0  0  0  0  0
    0.8442    7.7713   -0.8535 H   0  0  0  0  0  0  0  0  0  0  0  0
    1.8583    7.0349    1.2838 H   0  0  0  0  0  0  0  0  0  0  0  0
    2.6519    4.7145    1.5506 H   0  0  0  0  0  0  0  0  0  0  0  0
  1 31  1  0  0  0  0
  1 32  1  0  0  0  0
  1 33  1  0  0  0  0
  2  1  1  0  0  0  0
  2 34  1  0  0  0  0
  2 35  1  0  0  0  0
  3  2  1  0  0  0  0
  3 36  1  1  0  0  0
  4  3  1  0  0  0  0
  4 37  1  0  0  0  0
  4 38  1  0  0  0  0
  4 39  1  0  0  0  0
  5  3  1  0  0  0  0
  6  5  2  0  0  0  0
  7  5  1  0  0  0  0
  8  7  2  0  0  0  0
  9  8  1  0  0  0  0
  9 40  1  0  0  0  0
 10  8  1  0  0  0  0
 11 10  1  0  0  0  0
 11 41  1  0  0  0  0
 11 42  1  0  0  0  0
 12 11  1  0  0  0  0
 12 43  1  0  0  0  0
 12 44  1  0  0  0  0
 13 12  1  0  0  0  0
 13 45  1  0  0  0  0
 14 13  1  0  0  0  0
 14 46  1  0  0  0  0
 14 47  1  0  0  0  0
 14 48  1  0  0  0  0
 15 13  1  0  0  0  0
 15 49  1  0  0  0  0
 15 50  1  0  0  0  0
 15 51  1  0  0  0  0
 16 10  2  0  0  0  0
 17 16  1  0  0  0  0
 17 52  1  0  0  0  0
 18 16  1  0  0  0  0
 19 18  2  0  0  0  0
 19  7  1  0  0  0  0
 20 19  1  0  0  0  0
 21 20  1  0  0  0  0
 22 21  2  0  0  0  0
 23 21  1  0  0  0  0
 23 53  1  0  0  0  0
 23 54  1  0  0  0  0
 24 23  1  0  0  0  0
 24 18  1  0  0  0  0
 24 55  1  1  0  0  0
 25 24  1  0  0  0  0
 26 25  2  0  0  0  0
 26 56  1  0  0  0  0
 27 26  1  0  0  0  0
 27 57  1  0  0  0  0
 28 27  2  0  0  0  0
 28 58  1  0  0  0  0
 29 28  1  0  0  0  0
 29 59  1  0  0  0  0
 30 29  2  0  0  0  0
 30 25  1  0  0  0  0
 30 60  1  0  0  0  0
M  END
>  <MOL Chiral Flag>
0

>  <energy>
68.283557662247631

$$$$
