>58.sdf
 OpenBabel10052218143D

 60 65  0  0  0  0  0  0  0  0999 V2000
   -1.4927   -2.6665   -5.9086 Cl  0  0  0  0  0  0  0  0  0  0  0  0
   -1.6008   -2.3788   -4.1817 C   0  0  0  0  0  0  0  0  0  0  0  0
   -2.4059   -3.1990   -3.3850 C   0  0  0  0  0  0  0  0  0  0  0  0
   -2.4948   -2.9710   -2.0086 C   0  0  0  0  0  0  0  0  0  0  0  0
   -1.7793   -1.9147   -1.4181 C   0  0  0  0  0  0  0  0  0  0  0  0
   -0.9716   -1.0943   -2.2259 C   0  0  0  0  0  0  0  0  0  0  0  0
   -0.8833   -1.3281   -3.6011 C   0  0  0  0  0  0  0  0  0  0  0  0
   -1.8857   -1.6571    0.0679 C   0  0  1  0  0  0  0  0  0  0  0  0
   -0.5657   -1.7804    0.6790 N   0  0  0  0  0  0  0  0  0  0  0  0
    0.0410   -0.7061    1.4142 C   0  0  0  0  0  0  0  0  0  0  0  0
   -0.5925    0.4078    1.5403 N   0  0  0  0  0  0  0  0  0  0  0  0
   -1.8694    0.6582    0.9883 C   0  0  0  0  0  0  0  0  0  0  0  0
   -2.5280   -0.3030    0.3061 C   0  0  0  0  0  0  0  0  0  0  0  0
   -3.9428   -0.0220   -0.1876 C   0  0  0  0  0  0  0  0  0  0  0  0
   -4.0104    1.3948   -0.7568 C   0  0  0  0  0  0  0  0  0  0  0  0
   -3.5603    2.3642    0.3146 C   0  0  0  0  0  0  0  0  0  0  0  0
   -2.4760    2.0059    1.1419 C   0  0  0  0  0  0  0  0  0  0  0  0
   -1.9916    2.9197    2.0919 C   0  0  0  0  0  0  0  0  0  0  0  0
   -2.6025    4.1677    2.2363 C   0  0  0  0  0  0  0  0  0  0  0  0
   -3.6950    4.5122    1.4345 C   0  0  0  0  0  0  0  0  0  0  0  0
   -4.1747    3.6148    0.4738 C   0  0  0  0  0  0  0  0  0  0  0  0
    1.3342   -0.8344    2.0488 N   0  0  0  0  0  0  0  0  0  0  0  0
    1.8146    0.2280    2.9295 C   0  0  0  0  0  0  0  0  0  0  0  0
    3.1407    0.7587    2.3974 C   0  0  0  0  0  0  0  0  0  0  0  0
    4.0554   -0.3733    2.2709 N   0  0  0  0  0  0  0  0  0  0  0  0
    3.6006   -1.4386    1.3709 C   0  0  0  0  0  0  0  0  0  0  0  0
    2.2389   -1.9666    1.8544 C   0  0  0  0  0  0  0  0  0  0  0  0
    5.2796   -0.4602    3.0502 C   0  0  0  0  0  0  0  0  0  0  0  0
    5.9330   -1.7015    3.2611 C   0  0  0  0  0  0  0  0  0  0  0  0
    7.0895   -1.7797    4.0439 C   0  0  0  0  0  0  0  0  0  0  0  0
    7.6226   -0.6359    4.6314 C   0  0  0  0  0  0  0  0  0  0  0  0
    7.0072    0.5953    4.4351 C   0  0  0  0  0  0  0  0  0  0  0  0
    5.8529    0.6913    3.6556 C   0  0  0  0  0  0  0  0  0  0  0  0
   -2.9643   -4.0118   -3.8320 H   0  0  0  0  0  0  0  0  0  0  0  0
   -3.1253   -3.6122   -1.4051 H   0  0  0  0  0  0  0  0  0  0  0  0
   -0.4139   -0.2760   -1.7874 H   0  0  0  0  0  0  0  0  0  0  0  0
   -0.2592   -0.6915   -4.2150 H   0  0  0  0  0  0  0  0  0  0  0  0
   -2.5482   -2.4147    0.5414 H   0  0  0  0  0  0  0  0  0  0  0  0
   -0.1001   -2.6906    0.5963 H   0  0  0  0  0  0  0  0  0  0  0  0
   -4.2786   -0.7843   -0.9217 H   0  0  0  0  0  0  0  0  0  0  0  0
   -4.6343   -0.0623    0.6829 H   0  0  0  0  0  0  0  0  0  0  0  0
   -3.2958    1.4455   -1.6077 H   0  0  0  0  0  0  0  0  0  0  0  0
   -5.0243    1.6458   -1.1358 H   0  0  0  0  0  0  0  0  0  0  0  0
   -1.1547    2.6624    2.7294 H   0  0  0  0  0  0  0  0  0  0  0  0
   -2.2310    4.8668    2.9746 H   0  0  0  0  0  0  0  0  0  0  0  0
   -4.1638    5.4805    1.5517 H   0  0  0  0  0  0  0  0  0  0  0  0
   -5.0080    3.9003   -0.1551 H   0  0  0  0  0  0  0  0  0  0  0  0
    1.9750   -0.1918    3.9468 H   0  0  0  0  0  0  0  0  0  0  0  0
    1.1059    1.0749    3.0346 H   0  0  0  0  0  0  0  0  0  0  0  0
    3.4599    1.5428    3.0988 H   0  0  0  0  0  0  0  0  0  0  0  0
    2.9936    1.2315    1.4008 H   0  0  0  0  0  0  0  0  0  0  0  0
    3.4754   -1.0079    0.3529 H   0  0  0  0  0  0  0  0  0  0  0  0
    4.3093   -2.2750    1.2529 H   0  0  0  0  0  0  0  0  0  0  0  0
    1.8816   -2.7183    1.1325 H   0  0  0  0  0  0  0  0  0  0  0  0
    2.3879   -2.4755    2.8315 H   0  0  0  0  0  0  0  0  0  0  0  0
    5.5560   -2.6245    2.8569 H   0  0  0  0  0  0  0  0  0  0  0  0
    7.5693   -2.7367    4.2024 H   0  0  0  0  0  0  0  0  0  0  0  0
    8.5142   -0.7033    5.2411 H   0  0  0  0  0  0  0  0  0  0  0  0
    7.4244    1.4848    4.8904 H   0  0  0  0  0  0  0  0  0  0  0  0
    5.4388    1.6762    3.5338 H   0  0  0  0  0  0  0  0  0  0  0  0
  2  1  1  0  0  0  0
  3  2  2  0  0  0  0
  3 34  1  0  0  0  0
  4  3  1  0  0  0  0
  4 35  1  0  0  0  0
  5  4  2  0  0  0  0
  6  5  1  0  0  0  0
  6 36  1  0  0  0  0
  7  6  2  0  0  0  0
  7  2  1  0  0  0  0
  7 37  1  0  0  0  0
  8  5  1  0  0  0  0
  8 38  1  1  0  0  0
  9  8  1  0  0  0  0
  9 39  1  0  0  0  0
 10  9  1  0  0  0  0
 11 10  2  0  0  0  0
 12 11  1  0  0  0  0
 13 12  2  0  0  0  0
 13  8  1  0  0  0  0
 14 13  1  0  0  0  0
 14 40  1  0  0  0  0
 14 41  1  0  0  0  0
 15 14  1  0  0  0  0
 15 42  1  0  0  0  0
 15 43  1  0  0  0  0
 16 15  1  0  0  0  0
 17 16  2  0  0  0  0
 17 12  1  0  0  0  0
 18 17  1  0  0  0  0
 18 44  1  0  0  0  0
 19 18  2  0  0  0  0
 19 45  1  0  0  0  0
 20 19  1  0  0  0  0
 20 46  1  0  0  0  0
 21 20  2  0  0  0  0
 21 16  1  0  0  0  0
 21 47  1  0  0  0  0
 22 10  1  0  0  0  0
 23 22  1  0  0  0  0
 23 48  1  0  0  0  0
 23 49  1  0  0  0  0
 24 23  1  0  0  0  0
 24 50  1  0  0  0  0
 24 51  1  0  0  0  0
 25 24  1  0  0  0  0
 26 25  1  0  0  0  0
 26 52  1  0  0  0  0
 26 53  1  0  0  0  0
 27 26  1  0  0  0  0
 27 22  1  0  0  0  0
 27 54  1  0  0  0  0
 27 55  1  0  0  0  0
 28 25  1  0  0  0  0
 29 28  2  0  0  0  0
 29 56  1  0  0  0  0
 30 29  1  0  0  0  0
 30 57  1  0  0  0  0
 31 30  2  0  0  0  0
 31 58  1  0  0  0  0
 32 31  1  0  0  0  0
 32 59  1  0  0  0  0
 33 32  2  0  0  0  0
 33 28  1  0  0  0  0
 33 60  1  0  0  0  0
M  END
>  <MOL Chiral Flag>
0

>  <energy>
6.1355546888009229

$$$$
