>580.sdf
 OpenBabel10062215353D

 46 47  0  0  0  0  0  0  0  0999 V2000
    1.8314    3.3029    2.6171 C   0  0  0  0  0  0  0  0  0  0  0  0
    1.4123    2.6851    1.2958 C   0  0  0  0  0  0  0  0  0  0  0  0
    1.8616    1.4318    1.0599 C   0  0  0  0  0  0  0  0  0  0  0  0
    1.3966    0.5885   -0.0851 C   0  0  0  0  0  0  0  0  0  0  0  0
    0.0834    1.1152   -0.6624 C   0  0  0  0  0  0  0  0  0  0  0  0
    0.1676    2.6166   -1.0120 C   0  0  0  0  0  0  0  0  0  0  0  0
   -1.1944    2.9895   -1.6447 C   0  0  0  0  0  0  0  0  0  0  0  0
    1.2749    2.8316   -2.0757 C   0  0  0  0  0  0  0  0  0  0  0  0
    0.4478    3.4304    0.3277 C   0  0  2  0  0  0  0  0  0  0  0  0
    0.9472    4.9101    0.1037 C   0  0  0  0  0  0  0  0  0  0  0  0
   -0.1085    5.9241   -0.3913 C   0  0  0  0  0  0  0  0  0  0  0  0
    0.3177    7.3534   -0.1212 C   0  0  0  0  0  0  0  0  0  0  0  0
    0.6626    7.6610    1.0120 O   0  0  0  0  0  0  0  0  0  0  0  0
    0.2023    8.4121   -1.1614 C   0  0  0  0  0  0  0  0  0  0  0  0
    0.5593    9.6855   -0.8819 C   0  0  0  0  0  0  0  0  0  0  0  0
    0.3964   10.8483   -1.7996 C   0  0  0  0  0  0  0  0  0  0  0  0
   -0.2515   10.7668   -3.0470 C   0  0  0  0  0  0  0  0  0  0  0  0
   -0.4018   11.9155   -3.8286 C   0  0  0  0  0  0  0  0  0  0  0  0
    0.0977   13.1335   -3.3670 C   0  0  0  0  0  0  0  0  0  0  0  0
    0.7250   13.1999   -2.1650 N   0  0  0  0  0  0  0  0  0  0  0  0
    0.8813   12.1001   -1.3808 C   0  0  0  0  0  0  0  0  0  0  0  0
    2.9325    3.4437    2.6393 H   0  0  0  0  0  0  0  0  0  0  0  0
    1.3355    4.2615    2.8536 H   0  0  0  0  0  0  0  0  0  0  0  0
    1.5410    2.6219    3.4455 H   0  0  0  0  0  0  0  0  0  0  0  0
    2.5510    0.9712    1.7639 H   0  0  0  0  0  0  0  0  0  0  0  0
    1.1863   -0.4371    0.2889 H   0  0  0  0  0  0  0  0  0  0  0  0
    2.2110    0.5037   -0.8332 H   0  0  0  0  0  0  0  0  0  0  0  0
   -0.7204    0.9747    0.0970 H   0  0  0  0  0  0  0  0  0  0  0  0
   -0.1799    0.4963   -1.5489 H   0  0  0  0  0  0  0  0  0  0  0  0
   -1.4022    2.3415   -2.5245 H   0  0  0  0  0  0  0  0  0  0  0  0
   -1.2394    4.0197   -2.0193 H   0  0  0  0  0  0  0  0  0  0  0  0
   -2.0195    2.8462   -0.9144 H   0  0  0  0  0  0  0  0  0  0  0  0
    1.2809    3.8798   -2.4387 H   0  0  0  0  0  0  0  0  0  0  0  0
    2.2845    2.6115   -1.6722 H   0  0  0  0  0  0  0  0  0  0  0  0
    1.0989    2.1802   -2.9595 H   0  0  0  0  0  0  0  0  0  0  0  0
   -0.4927    3.4796    0.9198 H   0  0  0  0  0  0  0  0  0  0  0  0
    1.8779    4.9603   -0.4993 H   0  0  0  0  0  0  0  0  0  0  0  0
    1.2302    5.3038    1.0876 H   0  0  0  0  0  0  0  0  0  0  0  0
   -0.3365    5.8043   -1.4642 H   0  0  0  0  0  0  0  0  0  0  0  0
   -1.0318    5.7623    0.2049 H   0  0  0  0  0  0  0  0  0  0  0  0
   -0.2105    8.1452   -2.1259 H   0  0  0  0  0  0  0  0  0  0  0  0
    0.9774    9.8997    0.0982 H   0  0  0  0  0  0  0  0  0  0  0  0
   -0.6558    9.8369   -3.4160 H   0  0  0  0  0  0  0  0  0  0  0  0
   -0.9081   11.8639   -4.7836 H   0  0  0  0  0  0  0  0  0  0  0  0
   -0.0178   14.0294   -3.9630 H   0  0  0  0  0  0  0  0  0  0  0  0
    1.3801   12.2020   -0.4252 H   0  0  0  0  0  0  0  0  0  0  0  0
  1 22  1  0  0  0  0
  1 23  1  0  0  0  0
  1 24  1  0  0  0  0
  2  1  1  0  0  0  0
  3  2  2  0  0  0  0
  3 25  1  0  0  0  0
  4  3  1  0  0  0  0
  4 26  1  0  0  0  0
  4 27  1  0  0  0  0
  5  4  1  0  0  0  0
  5 28  1  0  0  0  0
  5 29  1  0  0  0  0
  6  5  1  0  0  0  0
  7  6  1  0  0  0  0
  7 30  1  0  0  0  0
  7 31  1  0  0  0  0
  7 32  1  0  0  0  0
  8  6  1  0  0  0  0
  8 33  1  0  0  0  0
  8 34  1  0  0  0  0
  8 35  1  0  0  0  0
  9  6  1  0  0  0  0
  9  2  1  0  0  0  0
  9 36  1  1  0  0  0
 10  9  1  0  0  0  0
 10 37  1  0  0  0  0
 10 38  1  0  0  0  0
 11 10  1  0  0  0  0
 11 39  1  0  0  0  0
 11 40  1  0  0  0  0
 12 11  1  0  0  0  0
 13 12  2  0  0  0  0
 14 12  1  0  0  0  0
 14 41  1  0  0  0  0
 15 14  2  0  0  0  0
 15 42  1  0  0  0  0
 16 15  1  0  0  0  0
 17 16  2  0  0  0  0
 17 43  1  0  0  0  0
 18 17  1  0  0  0  0
 18 44  1  0  0  0  0
 19 18  2  0  0  0  0
 19 45  1  0  0  0  0
 20 19  1  0  0  0  0
 21 20  2  0  0  0  0
 21 16  1  0  0  0  0
 21 46  1  0  0  0  0
M  END
>  <MOL Chiral Flag>
0

>  <energy>
74.954252360190893

$$$$
