>581.sdf
 OpenBabel10062215363D

  9  8  0  0  0  0  0  0  0  0999 V2000
    1.3681    0.1954    0.1453 N   0  0  0  0  0  0  0  0  0  0  0  0
    2.7217    0.2259    0.1525 C   0  0  0  0  0  0  0  0  0  0  0  0
    3.3513   -0.7430   -0.2469 O   0  0  0  0  0  0  0  0  0  0  0  0
    3.3792    1.3244    0.6001 N   0  0  0  0  0  0  0  0  0  0  0  0
    4.7239    1.3513    0.6061 O   0  0  0  0  0  0  0  0  0  0  0  0
    0.8678   -0.6394   -0.1947 H   0  0  0  0  0  0  0  0  0  0  0  0
    0.8217    1.0033    0.4784 H   0  0  0  0  0  0  0  0  0  0  0  0
    2.8418    2.1409    0.9369 H   0  0  0  0  0  0  0  0  0  0  0  0
    4.9809    2.2405    0.9639 H   0  0  0  0  0  0  0  0  0  0  0  0
  1  6  1  0  0  0  0
  1  7  1  0  0  0  0
  2  1  1  0  0  0  0
  3  2  2  0  0  0  0
  4  2  1  0  0  0  0
  4  8  1  0  0  0  0
  5  4  1  0  0  0  0
  5  9  1  0  0  0  0
M  END
>  <MOL Chiral Flag>
0

>  <energy>
-39.659043976291315

$$$$
