>583.sdf
 OpenBabel10062215383D

 34 35  0  0  0  0  0  0  0  0999 V2000
   -6.2126   -3.9401    2.9135 C   0  0  0  0  0  0  0  0  0  0  0  0
   -4.7683   -4.2255    2.5274 C   0  0  0  0  0  0  0  0  0  0  0  0
   -3.9956   -3.0800    2.8104 O   0  0  0  0  0  0  0  0  0  0  0  0
   -2.7217   -3.1766    2.2081 C   0  0  0  0  0  0  0  0  0  0  0  0
   -2.0875   -1.7920    2.2540 C   0  0  0  0  0  0  0  0  0  0  0  0
   -0.4688   -1.6923    1.4185 S   0  0  0  0  0  0  0  0  0  0  0  0
    0.1629   -0.4717    2.1024 O   0  0  0  0  0  0  0  0  0  0  0  0
    0.4782   -2.7853    1.9375 O   0  0  0  0  0  0  0  0  0  0  0  0
   -0.2410   -1.4385   -0.3617 C   0  0  0  0  0  0  0  0  0  0  0  0
   -1.0781   -1.9442   -1.2803 N   0  3  0  0  0  0  0  0  0  0  0  0
   -2.1316   -2.7228   -1.0650 O   0  5  0  0  0  0  0  0  0  0  0  0
   -0.7168   -1.5113   -2.4468 O   0  0  0  0  0  0  0  0  0  0  0  0
    0.3252   -0.7338   -2.3801 N   0  0  0  0  0  0  0  0  0  0  0  0
    0.6806   -0.6632   -1.0750 C   0  0  0  0  0  0  0  0  0  0  0  0
    1.8444    0.1501   -0.6295 C   0  0  0  0  0  0  0  0  0  0  0  0
    2.2830    1.2093   -1.4489 C   0  0  0  0  0  0  0  0  0  0  0  0
    3.3656    2.0049   -1.0659 C   0  0  0  0  0  0  0  0  0  0  0  0
    4.0361    1.7448    0.1291 C   0  0  0  0  0  0  0  0  0  0  0  0
    3.6297    0.6829    0.9391 C   0  0  0  0  0  0  0  0  0  0  0  0
    2.5419   -0.1134    0.5640 C   0  0  0  0  0  0  0  0  0  0  0  0
   -6.2784   -3.6934    3.9943 H   0  0  0  0  0  0  0  0  0  0  0  0
   -6.5985   -3.0806    2.3236 H   0  0  0  0  0  0  0  0  0  0  0  0
   -6.8443   -4.8291    2.7057 H   0  0  0  0  0  0  0  0  0  0  0  0
   -4.7701   -4.4712    1.4403 H   0  0  0  0  0  0  0  0  0  0  0  0
   -4.4005   -5.0913    3.1207 H   0  0  0  0  0  0  0  0  0  0  0  0
   -2.7997   -3.4775    1.1438 H   0  0  0  0  0  0  0  0  0  0  0  0
   -2.0825   -3.8990    2.7622 H   0  0  0  0  0  0  0  0  0  0  0  0
   -2.7577   -1.0606    1.7552 H   0  0  0  0  0  0  0  0  0  0  0  0
   -1.9707   -1.4702    3.3113 H   0  0  0  0  0  0  0  0  0  0  0  0
    1.7737    1.4325   -2.3784 H   0  0  0  0  0  0  0  0  0  0  0  0
    3.6831    2.8247   -1.6974 H   0  0  0  0  0  0  0  0  0  0  0  0
    4.8759    2.3611    0.4230 H   0  0  0  0  0  0  0  0  0  0  0  0
    4.1620    0.4723    1.8576 H   0  0  0  0  0  0  0  0  0  0  0  0
    2.2745   -0.9441    1.1936 H   0  0  0  0  0  0  0  0  0  0  0  0
  1 21  1  0  0  0  0
  1 22  1  0  0  0  0
  1 23  1  0  0  0  0
  2  1  1  0  0  0  0
  2 24  1  0  0  0  0
  2 25  1  0  0  0  0
  3  2  1  0  0  0  0
  4  3  1  0  0  0  0
  4 26  1  0  0  0  0
  4 27  1  0  0  0  0
  5  4  1  0  0  0  0
  5 28  1  0  0  0  0
  5 29  1  0  0  0  0
  6  5  1  0  0  0  0
  7  6  2  0  0  0  0
  8  6  2  0  0  0  0
  9  6  1  0  0  0  0
 10  9  2  0  0  0  0
 11 10  1  0  0  0  0
 12 10  1  0  0  0  0
 13 12  1  0  0  0  0
 14 13  2  0  0  0  0
 14  9  1  0  0  0  0
 15 14  1  0  0  0  0
 16 15  2  0  0  0  0
 16 30  1  0  0  0  0
 17 16  1  0  0  0  0
 17 31  1  0  0  0  0
 18 17  2  0  0  0  0
 18 32  1  0  0  0  0
 19 18  1  0  0  0  0
 19 33  1  0  0  0  0
 20 19  2  0  0  0  0
 20 15  1  0  0  0  0
 20 34  1  0  0  0  0
M  CHG  2  10   1  11  -1
M  END
>  <MOL Chiral Flag>
0

>  <energy>
-63.589125431179383

$$$$
