>589.sdf
 OpenBabel10062215423D

 30 31  0  0  0  0  0  0  0  0999 V2000
    5.1840   -2.1218    0.0979 O   0  0  0  0  0  0  0  0  0  0  0  0
    4.3140   -1.0925    0.1476 C   0  0  0  0  0  0  0  0  0  0  0  0
    2.9507   -1.3302   -0.0589 C   0  0  0  0  0  0  0  0  0  0  0  0
    2.0193   -0.2783    0.0054 C   0  0  0  0  0  0  0  0  0  0  0  0
    0.5747   -0.5954   -0.2097 C   0  0  0  0  0  0  0  0  0  0  0  0
   -0.4290    0.2769    0.0312 C   0  0  0  0  0  0  0  0  0  0  0  0
   -1.8769   -0.0249   -0.1694 C   0  0  0  0  0  0  0  0  0  0  0  0
   -2.3421   -1.2001   -0.7969 C   0  0  0  0  0  0  0  0  0  0  0  0
   -3.7133   -1.4167   -0.9619 C   0  0  0  0  0  0  0  0  0  0  0  0
   -4.6422   -0.4782   -0.5027 C   0  0  0  0  0  0  0  0  0  0  0  0
   -5.9597   -0.7163   -0.6750 O   0  0  0  0  0  0  0  0  0  0  0  0
   -4.1924    0.6942    0.1281 C   0  0  0  0  0  0  0  0  0  0  0  0
   -5.0828    1.6026    0.5809 O   0  0  0  0  0  0  0  0  0  0  0  0
   -2.8169    0.9162    0.2861 C   0  0  0  0  0  0  0  0  0  0  0  0
    2.4881    1.0290    0.2661 C   0  0  0  0  0  0  0  0  0  0  0  0
    3.8568    1.2681    0.4604 C   0  0  0  0  0  0  0  0  0  0  0  0
    4.3078    2.5169    0.6985 O   0  0  0  0  0  0  0  0  0  0  0  0
    4.7643    0.2083    0.4063 C   0  0  0  0  0  0  0  0  0  0  0  0
    6.1320   -1.9947    0.2477 H   0  0  0  0  0  0  0  0  0  0  0  0
    2.6157   -2.3416   -0.2572 H   0  0  0  0  0  0  0  0  0  0  0  0
    0.3437   -1.5960   -0.5502 H   0  0  0  0  0  0  0  0  0  0  0  0
   -0.1981    1.2579    0.4214 H   0  0  0  0  0  0  0  0  0  0  0  0
   -1.6634   -1.9493   -1.1731 H   0  0  0  0  0  0  0  0  0  0  0  0
   -4.0571   -2.3196   -1.4511 H   0  0  0  0  0  0  0  0  0  0  0  0
   -6.6404   -0.0962   -0.3772 H   0  0  0  0  0  0  0  0  0  0  0  0
   -4.8014    2.4136    1.0282 H   0  0  0  0  0  0  0  0  0  0  0  0
   -2.4794    1.8237    0.7731 H   0  0  0  0  0  0  0  0  0  0  0  0
    1.8151    1.8704    0.3089 H   0  0  0  0  0  0  0  0  0  0  0  0
    3.7095    3.2772    0.7327 H   0  0  0  0  0  0  0  0  0  0  0  0
    5.8194    0.3969    0.5626 H   0  0  0  0  0  0  0  0  0  0  0  0
  1 19  1  0  0  0  0
  2  1  1  0  0  0  0
  3  2  2  0  0  0  0
  3 20  1  0  0  0  0
  4  3  1  0  0  0  0
  5  4  1  0  0  0  0
  5 21  1  0  0  0  0
  6  5  2  0  0  0  0
  6 22  1  0  0  0  0
  7  6  1  0  0  0  0
  8  7  2  0  0  0  0
  8 23  1  0  0  0  0
  9  8  1  0  0  0  0
  9 24  1  0  0  0  0
 10  9  2  0  0  0  0
 11 10  1  0  0  0  0
 11 25  1  0  0  0  0
 12 10  1  0  0  0  0
 13 12  1  0  0  0  0
 13 26  1  0  0  0  0
 14 12  2  0  0  0  0
 14  7  1  0  0  0  0
 14 27  1  0  0  0  0
 15  4  2  0  0  0  0
 15 28  1  0  0  0  0
 16 15  1  0  0  0  0
 17 16  1  0  0  0  0
 17 29  1  0  0  0  0
 18 16  2  0  0  0  0
 18  2  1  0  0  0  0
 18 30  1  0  0  0  0
M  END
>  <MOL Chiral Flag>
0

>  <energy>
4.5146174142992095

$$$$
