>594.sdf
 OpenBabel10062215453D

 59 60  0  0  0  0  0  0  0  0999 V2000
   -0.0143  -11.9594   -1.3501 C   0  0  0  0  0  0  0  0  0  0  0  0
    0.6118  -11.4768   -0.0343 C   0  0  0  0  0  0  0  0  0  0  0  0
    1.2657  -10.1349   -0.0392 N   0  3  0  0  0  0  0  0  0  0  0  0
    2.6454  -10.1179   -0.6111 C   0  0  0  0  0  0  0  0  0  0  0  0
    2.7760  -10.1701   -2.1443 C   0  0  0  0  0  0  0  0  0  0  0  0
    0.3754   -9.0293   -0.5071 C   0  0  0  0  0  0  0  0  0  0  0  0
    0.6782   -7.6647    0.1809 C   0  0  0  0  0  0  0  0  0  0  0  0
   -0.1523   -6.5006   -0.4187 C   0  0  0  0  0  0  0  0  0  0  0  0
   -0.0672   -5.1902    0.4125 C   0  0  0  0  0  0  0  0  0  0  0  0
   -0.6924   -3.9804   -0.3323 C   0  0  0  0  0  0  0  0  0  0  0  0
   -0.8109   -2.6957    0.5365 C   0  0  0  0  0  0  0  0  0  0  0  0
   -1.1690   -1.5312   -0.2757 N   0  0  0  0  0  0  0  0  0  0  0  0
   -1.3965   -0.2095    0.2594 C   0  0  0  0  0  0  0  0  0  0  0  0
   -1.6020   -0.0003    1.6405 C   0  0  0  0  0  0  0  0  0  0  0  0
   -1.8450    1.2967    2.1450 C   0  0  0  0  0  0  0  0  0  0  0  0
   -2.0813    1.5404    3.4622 O   0  0  0  0  0  0  0  0  0  0  0  0
   -2.2063    0.5908    4.4514 C   0  0  0  0  0  0  0  0  0  0  0  0
   -1.8575    2.3886    1.2790 C   0  0  0  0  0  0  0  0  0  0  0  0
   -1.6478    2.2269   -0.1023 C   0  0  0  0  0  0  0  0  0  0  0  0
   -1.6464    3.3280   -1.0132 C   0  0  0  0  0  0  0  0  0  0  0  0
   -1.8558    4.7775   -0.6178 C   0  0  0  0  0  0  0  0  0  0  0  0
   -1.4312    3.0748   -2.3732 C   0  0  0  0  0  0  0  0  0  0  0  0
   -1.2249    1.7747   -2.8212 C   0  0  0  0  0  0  0  0  0  0  0  0
   -1.2260    0.7386   -1.9462 N   0  0  0  0  0  0  0  0  0  0  0  0
   -1.4280    0.9138   -0.6104 C   0  0  0  0  0  0  0  0  0  0  0  0
   -0.5387  -12.9201   -1.1542 H   0  0  0  0  0  0  0  0  0  0  0  0
    0.7244  -12.1872   -2.1300 H   0  0  0  0  0  0  0  0  0  0  0  0
   -0.7618  -11.2368   -1.7329 H   0  0  0  0  0  0  0  0  0  0  0  0
    1.3237  -12.2520    0.3312 H   0  0  0  0  0  0  0  0  0  0  0  0
   -0.2217  -11.4527    0.7048 H   0  0  0  0  0  0  0  0  0  0  0  0
    1.4202   -9.9690    0.9849 H   0  0  0  0  0  0  0  0  0  0  0  0
    3.1601   -9.1895   -0.2848 H   0  0  0  0  0  0  0  0  0  0  0  0
    3.2358  -10.9627   -0.1888 H   0  0  0  0  0  0  0  0  0  0  0  0
    2.4201  -11.1129   -2.5815 H   0  0  0  0  0  0  0  0  0  0  0  0
    2.2801   -9.3138   -2.6400 H   0  0  0  0  0  0  0  0  0  0  0  0
    3.8530  -10.1138   -2.4089 H   0  0  0  0  0  0  0  0  0  0  0  0
   -0.6826   -9.2631   -0.2513 H   0  0  0  0  0  0  0  0  0  0  0  0
    0.4115   -8.9397   -1.6097 H   0  0  0  0  0  0  0  0  0  0  0  0
    1.7516   -7.4010    0.0784 H   0  0  0  0  0  0  0  0  0  0  0  0
    0.4478   -7.7770    1.2630 H   0  0  0  0  0  0  0  0  0  0  0  0
    0.2212   -6.3263   -1.4513 H   0  0  0  0  0  0  0  0  0  0  0  0
   -1.2242   -6.7895   -0.4778 H   0  0  0  0  0  0  0  0  0  0  0  0
    0.9950   -4.9423    0.6280 H   0  0  0  0  0  0  0  0  0  0  0  0
   -0.5908   -5.3622    1.3782 H   0  0  0  0  0  0  0  0  0  0  0  0
   -1.7120   -4.2367   -0.6941 H   0  0  0  0  0  0  0  0  0  0  0  0
   -0.0488   -3.7750   -1.2156 H   0  0  0  0  0  0  0  0  0  0  0  0
    0.1610   -2.4826    1.0311 H   0  0  0  0  0  0  0  0  0  0  0  0
   -1.5824   -2.8825    1.3138 H   0  0  0  0  0  0  0  0  0  0  0  0
   -1.1997   -1.6537   -1.2992 H   0  0  0  0  0  0  0  0  0  0  0  0
   -1.5921   -0.8395    2.3177 H   0  0  0  0  0  0  0  0  0  0  0  0
   -2.4137    1.1057    5.4129 H   0  0  0  0  0  0  0  0  0  0  0  0
   -1.2647    0.0136    4.5543 H   0  0  0  0  0  0  0  0  0  0  0  0
   -3.0589   -0.0843    4.2254 H   0  0  0  0  0  0  0  0  0  0  0  0
   -2.0407    3.3543    1.7168 H   0  0  0  0  0  0  0  0  0  0  0  0
   -2.0207    4.9758    0.4526 H   0  0  0  0  0  0  0  0  0  0  0  0
   -2.7377    5.1829   -1.1579 H   0  0  0  0  0  0  0  0  0  0  0  0
   -0.9639    5.3698   -0.9153 H   0  0  0  0  0  0  0  0  0  0  0  0
   -1.4228    3.8912   -3.0866 H   0  0  0  0  0  0  0  0  0  0  0  0
   -1.0586    1.5897   -3.8739 H   0  0  0  0  0  0  0  0  0  0  0  0
  1 26  1  0  0  0  0
  1 27  1  0  0  0  0
  1 28  1  0  0  0  0
  2  1  1  0  0  0  0
  2 29  1  0  0  0  0
  2 30  1  0  0  0  0
  3  2  1  0  0  0  0
  3 31  1  0  0  0  0
  4  3  1  0  0  0  0
  4 32  1  0  0  0  0
  4 33  1  0  0  0  0
  5  4  1  0  0  0  0
  5 34  1  0  0  0  0
  5 35  1  0  0  0  0
  5 36  1  0  0  0  0
  6  3  1  0  0  0  0
  6 37  1  0  0  0  0
  6 38  1  0  0  0  0
  7  6  1  0  0  0  0
  7 39  1  0  0  0  0
  7 40  1  0  0  0  0
  8  7  1  0  0  0  0
  8 41  1  0  0  0  0
  8 42  1  0  0  0  0
  9  8  1  0  0  0  0
  9 43  1  0  0  0  0
  9 44  1  0  0  0  0
 10  9  1  0  0  0  0
 10 45  1  0  0  0  0
 10 46  1  0  0  0  0
 11 10  1  0  0  0  0
 11 47  1  0  0  0  0
 11 48  1  0  0  0  0
 12 11  1  0  0  0  0
 12 49  1  0  0  0  0
 13 12  1  0  0  0  0
 14 13  2  0  0  0  0
 14 50  1  0  0  0  0
 15 14  1  0  0  0  0
 16 15  1  0  0  0  0
 17 16  1  0  0  0  0
 17 51  1  0  0  0  0
 17 52  1  0  0  0  0
 17 53  1  0  0  0  0
 18 15  2  0  0  0  0
 18 54  1  0  0  0  0
 19 18  1  0  0  0  0
 20 19  2  0  0  0  0
 21 20  1  0  0  0  0
 21 55  1  0  0  0  0
 21 56  1  0  0  0  0
 21 57  1  0  0  0  0
 22 20  1  0  0  0  0
 22 58  1  0  0  0  0
 23 22  2  0  0  0  0
 23 59  1  0  0  0  0
 24 23  1  0  0  0  0
 25 24  2  0  0  0  0
 25 13  1  0  0  0  0
 25 19  1  0  0  0  0
M  CHG  1   3   1
M  END
>  <MOL Chiral Flag>
0

>  <energy>
90.212598720024786

$$$$
