>60.sdf
 OpenBabel10052218153D

 70 74  0  0  0  0  0  0  0  0999 V2000
   -3.1196   -6.3538    0.9999 C   0  0  0  0  0  0  0  0  0  0  0  0
   -2.8020   -5.4003    1.9463 O   0  0  0  0  0  0  0  0  0  0  0  0
   -2.6813   -4.0677    1.7043 C   0  0  0  0  0  0  0  0  0  0  0  0
   -2.8560   -3.5171    0.4217 C   0  0  0  0  0  0  0  0  0  0  0  0
   -2.7248   -2.1415    0.2221 C   0  0  0  0  0  0  0  0  0  0  0  0
   -2.4322   -1.2760    1.2962 C   0  0  0  0  0  0  0  0  0  0  0  0
   -2.2368   -1.8407    2.5724 C   0  0  0  0  0  0  0  0  0  0  0  0
   -2.3643   -3.2196    2.7688 C   0  0  0  0  0  0  0  0  0  0  0  0
   -2.3152    0.1910    1.0182 C   0  0  0  0  0  0  0  0  0  0  0  0
   -2.5336    1.2290    1.9595 C   0  0  0  0  0  0  0  0  0  0  0  0
   -2.9157    1.1725    3.2638 N   0  0  0  0  0  0  0  0  0  0  0  0
   -2.9787    2.4534    3.6880 C   0  0  0  0  0  0  0  0  0  0  0  0
   -2.6641    3.3218    2.6730 C   0  0  0  0  0  0  0  0  0  0  0  0
   -2.6655    4.7029    2.8605 C   0  0  0  0  0  0  0  0  0  0  0  0
   -2.9968    5.1939    4.1373 C   0  0  0  0  0  0  0  0  0  0  0  0
   -3.3218    4.2997    5.1845 C   0  0  0  0  0  0  0  0  0  0  0  0
   -3.3169    2.9092    4.9606 C   0  0  0  0  0  0  0  0  0  0  0  0
   -2.3963    2.5475    1.5707 C   0  0  0  0  0  0  0  0  0  0  0  0
   -2.0625    2.9081    0.2767 C   0  0  0  0  0  0  0  0  0  0  0  0
   -1.8542    1.8745   -0.6538 C   0  0  0  0  0  0  0  0  0  0  0  0
   -1.9866    0.5693   -0.2586 N   0  0  0  0  0  0  0  0  0  0  0  0
   -1.4871    2.1918   -2.0550 C   0  0  0  0  0  0  0  0  0  0  0  0
   -1.5747    3.3489   -2.4446 O   0  0  0  0  0  0  0  0  0  0  0  0
   -1.0163    1.2191   -2.8919 N   0  0  0  0  0  0  0  0  0  0  0  0
   -0.6575    1.4973   -4.2728 C   0  0  0  0  0  0  0  0  0  0  0  0
    0.8588    1.4850   -4.4688 C   0  0  0  0  0  0  0  0  0  0  0  0
    1.4512    0.1707   -4.3043 N   0  0  0  0  0  0  0  0  0  0  0  0
    2.2747   -0.1197   -3.1823 C   0  0  0  0  0  0  0  0  0  0  0  0
    2.0516    0.4767   -1.9808 N   0  0  0  0  0  0  0  0  0  0  0  0
    2.8598    0.2084   -0.9180 C   0  0  0  0  0  0  0  0  0  0  0  0
    3.9149   -0.6337   -1.0805 N   0  0  0  0  0  0  0  0  0  0  0  0
    4.1532   -1.2251   -2.2800 C   0  0  0  0  0  0  0  0  0  0  0  0
    3.3178   -0.9774   -3.3229 N   0  0  0  0  0  0  0  0  0  0  0  0
    5.2924   -2.0692   -2.4529 N   0  0  0  0  0  0  0  0  0  0  0  0
    5.5477   -2.6843   -3.7446 C   0  0  0  0  0  0  0  0  0  0  0  0
    6.2075   -2.2834   -1.3439 C   0  0  0  0  0  0  0  0  0  0  0  0
    2.6047    0.7927    0.3637 N   0  0  0  0  0  0  0  0  0  0  0  0
    3.4916    0.5008    1.4753 C   0  0  0  0  0  0  0  0  0  0  0  0
    1.4626    1.6620    0.5877 C   0  0  0  0  0  0  0  0  0  0  0  0
   -4.1194   -6.1442    0.5626 H   0  0  0  0  0  0  0  0  0  0  0  0
   -2.3485   -6.3754    0.2004 H   0  0  0  0  0  0  0  0  0  0  0  0
   -3.1505   -7.3502    1.4861 H   0  0  0  0  0  0  0  0  0  0  0  0
   -3.0950   -4.1437   -0.4268 H   0  0  0  0  0  0  0  0  0  0  0  0
   -2.8719   -1.7493   -0.7766 H   0  0  0  0  0  0  0  0  0  0  0  0
   -1.9506   -1.2442    3.4164 H   0  0  0  0  0  0  0  0  0  0  0  0
   -2.2088   -3.6334    3.7574 H   0  0  0  0  0  0  0  0  0  0  0  0
   -3.1459    0.3516    3.8572 H   0  0  0  0  0  0  0  0  0  0  0  0
   -2.4178    5.3795    2.0529 H   0  0  0  0  0  0  0  0  0  0  0  0
   -3.0041    6.2610    4.3181 H   0  0  0  0  0  0  0  0  0  0  0  0
   -3.5763    4.6867    6.1626 H   0  0  0  0  0  0  0  0  0  0  0  0
   -3.5653    2.2172    5.7547 H   0  0  0  0  0  0  0  0  0  0  0  0
   -1.9657    3.9508    0.0011 H   0  0  0  0  0  0  0  0  0  0  0  0
   -0.8750    0.2622   -2.5350 H   0  0  0  0  0  0  0  0  0  0  0  0
   -1.1639    0.7759   -4.9494 H   0  0  0  0  0  0  0  0  0  0  0  0
   -0.9967    2.5119   -4.5738 H   0  0  0  0  0  0  0  0  0  0  0  0
    1.3313    2.2297   -3.7906 H   0  0  0  0  0  0  0  0  0  0  0  0
    1.0661    1.8245   -5.5076 H   0  0  0  0  0  0  0  0  0  0  0  0
    1.6795   -0.3376   -5.1726 H   0  0  0  0  0  0  0  0  0  0  0  0
    5.6669   -1.8958   -4.5181 H   0  0  0  0  0  0  0  0  0  0  0  0
    4.6976   -3.3426   -4.0214 H   0  0  0  0  0  0  0  0  0  0  0  0
    6.4726   -3.2987   -3.7384 H   0  0  0  0  0  0  0  0  0  0  0  0
    5.6673   -2.7522   -0.4949 H   0  0  0  0  0  0  0  0  0  0  0  0
    7.0542   -2.9451   -1.6234 H   0  0  0  0  0  0  0  0  0  0  0  0
    6.6303   -1.3098   -1.0149 H   0  0  0  0  0  0  0  0  0  0  0  0
    4.5204    0.8436    1.2350 H   0  0  0  0  0  0  0  0  0  0  0  0
    3.1602    1.0164    2.4028 H   0  0  0  0  0  0  0  0  0  0  0  0
    3.5051   -0.5925    1.6714 H   0  0  0  0  0  0  0  0  0  0  0  0
    1.8105    2.6558    0.9385 H   0  0  0  0  0  0  0  0  0  0  0  0
    0.8006    1.2153    1.3606 H   0  0  0  0  0  0  0  0  0  0  0  0
    0.8649    1.8160   -0.3298 H   0  0  0  0  0  0  0  0  0  0  0  0
  1 40  1  0  0  0  0
  1 41  1  0  0  0  0
  1 42  1  0  0  0  0
  2  1  1  0  0  0  0
  3  2  1  0  0  0  0
  4  3  2  0  0  0  0
  4 43  1  0  0  0  0
  5  4  1  0  0  0  0
  5 44  1  0  0  0  0
  6  5  2  0  0  0  0
  7  6  1  0  0  0  0
  7 45  1  0  0  0  0
  8  7  2  0  0  0  0
  8  3  1  0  0  0  0
  8 46  1  0  0  0  0
  9  6  1  0  0  0  0
 10  9  2  0  0  0  0
 11 10  1  0  0  0  0
 11 47  1  0  0  0  0
 12 11  1  0  0  0  0
 13 12  2  0  0  0  0
 14 13  1  0  0  0  0
 14 48  1  0  0  0  0
 15 14  2  0  0  0  0
 15 49  1  0  0  0  0
 16 15  1  0  0  0  0
 16 50  1  0  0  0  0
 17 16  2  0  0  0  0
 17 12  1  0  0  0  0
 17 51  1  0  0  0  0
 18 13  1  0  0  0  0
 18 10  1  0  0  0  0
 19 18  2  0  0  0  0
 19 52  1  0  0  0  0
 20 19  1  0  0  0  0
 21 20  2  0  0  0  0
 21  9  1  0  0  0  0
 22 20  1  0  0  0  0
 23 22  2  0  0  0  0
 24 22  1  0  0  0  0
 24 53  1  0  0  0  0
 25 24  1  0  0  0  0
 25 54  1  0  0  0  0
 25 55  1  0  0  0  0
 26 25  1  0  0  0  0
 26 56  1  0  0  0  0
 26 57  1  0  0  0  0
 27 26  1  0  0  0  0
 27 58  1  0  0  0  0
 28 27  1  0  0  0  0
 29 28  2  0  0  0  0
 30 29  1  0  0  0  0
 31 30  2  0  0  0  0
 32 31  1  0  0  0  0
 33 32  2  0  0  0  0
 33 28  1  0  0  0  0
 34 32  1  0  0  0  0
 35 34  1  0  0  0  0
 35 59  1  0  0  0  0
 35 60  1  0  0  0  0
 35 61  1  0  0  0  0
 36 34  1  0  0  0  0
 36 62  1  0  0  0  0
 36 63  1  0  0  0  0
 36 64  1  0  0  0  0
 37 30  1  0  0  0  0
 38 37  1  0  0  0  0
 38 65  1  0  0  0  0
 38 66  1  0  0  0  0
 38 67  1  0  0  0  0
 39 37  1  0  0  0  0
 39 68  1  0  0  0  0
 39 69  1  0  0  0  0
 39 70  1  0  0  0  0
M  END
>  <MOL Chiral Flag>
0

>  <energy>
-171.13122668323197

$$$$
