>604.sdf
 OpenBabel10062215503D

 38 40  0  0  0  0  0  0  0  0999 V2000
   -3.4859    0.3892    1.8491 C   0  0  0  0  0  0  0  0  0  0  0  0
   -2.4742   -0.5224    1.1455 C   0  0  0  0  0  0  0  0  0  0  0  0
   -3.0140   -1.9523    1.0200 C   0  0  0  0  0  0  0  0  0  0  0  0
   -2.0856    0.0233   -0.2278 C   0  0  0  0  0  0  0  0  0  0  0  0
   -0.7310    0.2782   -0.5488 C   0  0  0  0  0  0  0  0  0  0  0  0
    0.2364    0.0528    0.3737 N   0  0  0  0  0  0  0  0  0  0  0  0
    1.5596    0.1893    0.1040 C   0  0  0  0  0  0  0  0  0  0  0  0
    1.9619    0.6159   -1.1696 C   0  0  0  0  0  0  0  0  0  0  0  0
    0.9993    0.9198   -2.1451 C   0  0  0  0  0  0  0  0  0  0  0  0
    1.4520    1.4231   -3.4931 C   0  0  0  0  0  0  0  0  0  0  0  0
   -0.3745    0.7339   -1.8428 C   0  0  0  0  0  0  0  0  0  0  0  0
   -1.3877    0.9688   -2.7911 C   0  0  0  0  0  0  0  0  0  0  0  0
   -2.7233    0.7251   -2.4695 C   0  0  0  0  0  0  0  0  0  0  0  0
   -3.0709    0.2465   -1.2063 C   0  0  0  0  0  0  0  0  0  0  0  0
    2.5347   -0.1487    1.1630 C   0  0  0  0  0  0  0  0  0  0  0  0
    3.7634   -0.7570    0.8584 C   0  0  0  0  0  0  0  0  0  0  0  0
    4.6377   -1.1094    1.8875 C   0  0  0  0  0  0  0  0  0  0  0  0
    4.2921   -0.8274    3.2100 C   0  0  0  0  0  0  0  0  0  0  0  0
    3.1042   -0.2296    3.4917 N   0  0  0  0  0  0  0  0  0  0  0  0
    2.2226    0.0992    2.5105 C   0  0  0  0  0  0  0  0  0  0  0  0
   -3.0656    1.4111    1.9577 H   0  0  0  0  0  0  0  0  0  0  0  0
   -4.4388    0.4489    1.2830 H   0  0  0  0  0  0  0  0  0  0  0  0
   -3.7109   -0.0066    2.8627 H   0  0  0  0  0  0  0  0  0  0  0  0
   -1.5846   -0.5836    1.8075 H   0  0  0  0  0  0  0  0  0  0  0  0
   -3.2505   -2.3619    2.0254 H   0  0  0  0  0  0  0  0  0  0  0  0
   -2.2412   -2.6052    0.5582 H   0  0  0  0  0  0  0  0  0  0  0  0
   -3.9312   -1.9880    0.3960 H   0  0  0  0  0  0  0  0  0  0  0  0
    3.0151    0.7390   -1.3922 H   0  0  0  0  0  0  0  0  0  0  0  0
    1.1229    0.7269   -4.2919 H   0  0  0  0  0  0  0  0  0  0  0  0
    1.0212    2.4305   -3.6779 H   0  0  0  0  0  0  0  0  0  0  0  0
    2.5577    1.5144   -3.5498 H   0  0  0  0  0  0  0  0  0  0  0  0
   -1.1561    1.3232   -3.7864 H   0  0  0  0  0  0  0  0  0  0  0  0
   -3.4941    0.8959   -3.2097 H   0  0  0  0  0  0  0  0  0  0  0  0
   -4.1131    0.0499   -0.9921 H   0  0  0  0  0  0  0  0  0  0  0  0
    4.0260   -0.9954   -0.1642 H   0  0  0  0  0  0  0  0  0  0  0  0
    5.5733   -1.6046    1.6627 H   0  0  0  0  0  0  0  0  0  0  0  0
    4.9648   -1.0913    4.0146 H   0  0  0  0  0  0  0  0  0  0  0  0
    1.2884    0.5783    2.7771 H   0  0  0  0  0  0  0  0  0  0  0  0
  1 21  1  0  0  0  0
  1 22  1  0  0  0  0
  1 23  1  0  0  0  0
  2  1  1  0  0  0  0
  2 24  1  0  0  0  0
  3  2  1  0  0  0  0
  3 25  1  0  0  0  0
  3 26  1  0  0  0  0
  3 27  1  0  0  0  0
  4  2  1  0  0  0  0
  5  4  2  0  0  0  0
  6  5  1  0  0  0  0
  7  6  2  0  0  0  0
  8  7  1  0  0  0  0
  8 28  1  0  0  0  0
  9  8  2  0  0  0  0
 10  9  1  0  0  0  0
 10 29  1  0  0  0  0
 10 30  1  0  0  0  0
 10 31  1  0  0  0  0
 11  9  1  0  0  0  0
 11  5  1  0  0  0  0
 12 11  2  0  0  0  0
 12 32  1  0  0  0  0
 13 12  1  0  0  0  0
 13 33  1  0  0  0  0
 14 13  2  0  0  0  0
 14  4  1  0  0  0  0
 14 34  1  0  0  0  0
 15  7  1  0  0  0  0
 16 15  2  0  0  0  0
 16 35  1  0  0  0  0
 17 16  1  0  0  0  0
 17 36  1  0  0  0  0
 18 17  2  0  0  0  0
 18 37  1  0  0  0  0
 19 18  1  0  0  0  0
 20 19  2  0  0  0  0
 20 15  1  0  0  0  0
 20 38  1  0  0  0  0
M  END
>  <MOL Chiral Flag>
0

>  <energy>
74.277972793272767

$$$$
