>607.sdf
 OpenBabel10062215513D

 48 51  0  0  0  0  0  0  0  0999 V2000
   -6.1715    1.1607   -1.6917 C   0  0  0  0  0  0  0  0  0  0  0  0
   -5.6404    0.2345   -0.8183 O   0  0  0  0  0  0  0  0  0  0  0  0
   -4.3277    0.1340   -0.4759 C   0  0  0  0  0  0  0  0  0  0  0  0
   -3.3692    1.0723   -0.8821 C   0  0  0  0  0  0  0  0  0  0  0  0
   -2.0253    0.9330   -0.5005 C   0  0  0  0  0  0  0  0  0  0  0  0
   -1.6075   -0.1548    0.3051 C   0  0  0  0  0  0  0  0  0  0  0  0
   -2.5851   -1.1286    0.6806 C   0  0  0  0  0  0  0  0  0  0  0  0
   -2.2198   -2.2343    1.3776 O   0  0  0  0  0  0  0  0  0  0  0  0
   -2.8217   -3.4716    1.2614 C   0  0  0  0  0  0  0  0  0  0  0  0
   -3.9295   -0.9543    0.2919 C   0  0  0  0  0  0  0  0  0  0  0  0
   -0.2218   -0.2260    0.6857 C   0  0  0  0  0  0  0  0  0  0  0  0
    0.2814   -1.3478    1.5872 C   0  0  0  0  0  0  0  0  0  0  0  0
    0.6594    0.7463    0.2429 N   0  3  0  0  0  0  0  0  0  0  0  0
    0.2406    1.7709   -0.5716 C   0  0  0  0  0  0  0  0  0  0  0  0
    1.2161    2.7988   -1.0982 C   0  0  0  0  0  0  0  0  0  0  0  0
   -1.0995    1.8743   -0.9372 C   0  0  0  0  0  0  0  0  0  0  0  0
    2.0430    0.7246    0.6621 C   0  0  0  0  0  0  0  0  0  0  0  0
    2.4150    1.4775    1.7855 C   0  0  0  0  0  0  0  0  0  0  0  0
    3.7363    1.4863    2.2297 C   0  0  0  0  0  0  0  0  0  0  0  0
    4.7081    0.7459    1.5579 C   0  0  0  0  0  0  0  0  0  0  0  0
    4.3628   -0.0148    0.4311 C   0  0  0  0  0  0  0  0  0  0  0  0
    3.0190   -0.0332   -0.0271 C   0  0  0  0  0  0  0  0  0  0  0  0
    2.6900   -0.8023   -1.1592 C   0  0  0  0  0  0  0  0  0  0  0  0
    3.6782   -1.5369   -1.8220 C   0  0  0  0  0  0  0  0  0  0  0  0
    4.9986   -1.5137   -1.3671 C   0  0  0  0  0  0  0  0  0  0  0  0
    5.3421   -0.7571   -0.2453 C   0  0  0  0  0  0  0  0  0  0  0  0
   -7.2666    0.9987   -1.7655 H   0  0  0  0  0  0  0  0  0  0  0  0
   -5.9936    2.1948   -1.3282 H   0  0  0  0  0  0  0  0  0  0  0  0
   -5.7265    1.0230   -2.7001 H   0  0  0  0  0  0  0  0  0  0  0  0
   -3.6624    1.9167   -1.4931 H   0  0  0  0  0  0  0  0  0  0  0  0
   -2.7485   -3.8133    0.2048 H   0  0  0  0  0  0  0  0  0  0  0  0
   -3.8807   -3.4523    1.5845 H   0  0  0  0  0  0  0  0  0  0  0  0
   -2.2758   -4.1986    1.8954 H   0  0  0  0  0  0  0  0  0  0  0  0
   -4.6838   -1.6712    0.5824 H   0  0  0  0  0  0  0  0  0  0  0  0
    0.1423   -2.3287    1.0885 H   0  0  0  0  0  0  0  0  0  0  0  0
    1.3559   -1.2984    1.8411 H   0  0  0  0  0  0  0  0  0  0  0  0
   -0.2584   -1.3176    2.5574 H   0  0  0  0  0  0  0  0  0  0  0  0
    1.9969    2.2857   -1.7000 H   0  0  0  0  0  0  0  0  0  0  0  0
    0.7223    3.5449   -1.7562 H   0  0  0  0  0  0  0  0  0  0  0  0
    1.6969    3.3413   -0.2596 H   0  0  0  0  0  0  0  0  0  0  0  0
   -1.4216    2.6929   -1.5717 H   0  0  0  0  0  0  0  0  0  0  0  0
    1.6696    2.0562    2.3166 H   0  0  0  0  0  0  0  0  0  0  0  0
    4.0074    2.0707    3.0994 H   0  0  0  0  0  0  0  0  0  0  0  0
    5.7303    0.7661    1.9168 H   0  0  0  0  0  0  0  0  0  0  0  0
    1.6744   -0.8361   -1.5326 H   0  0  0  0  0  0  0  0  0  0  0  0
    3.4201   -2.1259   -2.6924 H   0  0  0  0  0  0  0  0  0  0  0  0
    5.7590   -2.0836   -1.8854 H   0  0  0  0  0  0  0  0  0  0  0  0
    6.3710   -0.7492    0.0952 H   0  0  0  0  0  0  0  0  0  0  0  0
  1 27  1  0  0  0  0
  1 28  1  0  0  0  0
  1 29  1  0  0  0  0
  2  1  1  0  0  0  0
  3  2  1  0  0  0  0
  4  3  2  0  0  0  0
  4 30  1  0  0  0  0
  5  4  1  0  0  0  0
  6  5  2  0  0  0  0
  7  6  1  0  0  0  0
  8  7  1  0  0  0  0
  9  8  1  0  0  0  0
  9 31  1  0  0  0  0
  9 32  1  0  0  0  0
  9 33  1  0  0  0  0
 10  7  2  0  0  0  0
 10  3  1  0  0  0  0
 10 34  1  0  0  0  0
 11  6  1  0  0  0  0
 12 11  1  0  0  0  0
 12 35  1  0  0  0  0
 12 36  1  0  0  0  0
 12 37  1  0  0  0  0
 13 11  2  0  0  0  0
 14 13  1  0  0  0  0
 15 14  1  0  0  0  0
 15 38  1  0  0  0  0
 15 39  1  0  0  0  0
 15 40  1  0  0  0  0
 16 14  2  0  0  0  0
 16  5  1  0  0  0  0
 16 41  1  0  0  0  0
 17 13  1  0  0  0  0
 18 17  2  0  0  0  0
 18 42  1  0  0  0  0
 19 18  1  0  0  0  0
 19 43  1  0  0  0  0
 20 19  2  0  0  0  0
 20 44  1  0  0  0  0
 21 20  1  0  0  0  0
 22 21  2  0  0  0  0
 22 17  1  0  0  0  0
 23 22  1  0  0  0  0
 23 45  1  0  0  0  0
 24 23  2  0  0  0  0
 24 46  1  0  0  0  0
 25 24  1  0  0  0  0
 25 47  1  0  0  0  0
 26 25  2  0  0  0  0
 26 21  1  0  0  0  0
 26 48  1  0  0  0  0
M  CHG  1  13   1
M  END
>  <MOL Chiral Flag>
0

>  <energy>
135.87350217529493

$$$$
