>610.sdf
 OpenBabel10062215533D

 80 83  0  0  0  0  0  0  0  0999 V2000
    4.0553    7.1058   -0.9458 C   0  0  0  0  0  0  0  0  0  0  0  0
    4.2264    5.8137   -0.1352 C   0  0  0  0  0  0  0  0  0  0  0  0
    5.6281    5.2319   -0.3898 C   0  0  0  0  0  0  0  0  0  0  0  0
    3.1585    4.7884   -0.5598 C   0  0  0  0  0  0  0  0  0  0  0  0
    2.8440    3.6900    0.4806 C   0  0  0  0  0  0  0  0  0  0  0  0
    1.7923    4.1877    1.5060 C   0  0  0  0  0  0  0  0  0  0  0  0
    0.8897    3.0820    2.1191 C   0  0  1  0  0  0  0  0  0  0  0  0
    0.0102    3.7352    3.2091 C   0  0  0  0  0  0  0  0  0  0  0  0
   -0.0407    2.3330    1.0728 C   0  0  1  0  0  0  0  0  0  0  0  0
   -0.2153    2.8431   -0.4013 C   0  0  0  0  0  0  0  0  0  0  0  0
   -0.4504    1.5712   -1.2420 C   0  0  0  0  0  0  0  0  0  0  0  0
   -0.9694    0.5693   -0.2128 C   0  0  1  0  0  0  0  0  0  0  0  0
   -1.1620   -0.9109   -0.6193 C   0  0  2  0  0  0  0  0  0  0  0  0
   -2.1698   -1.1032   -1.8163 C   0  0  2  0  0  0  0  0  0  0  0  0
   -3.5799   -0.4131   -1.7765 C   0  0  0  0  0  0  0  0  0  0  0  0
   -3.5974    1.0166   -2.1017 N   0  3  0  0  0  0  0  0  0  0  0  0
   -2.4717   -2.5676   -2.0320 C   0  0  0  0  0  0  0  0  0  0  0  0
   -2.2852   -3.5405   -1.1142 C   0  0  0  0  0  0  0  0  0  0  0  0
   -2.6694   -4.9659   -1.4730 C   0  0  0  0  0  0  0  0  0  0  0  0
   -3.6663   -5.4947   -0.4288 C   0  0  1  0  0  0  0  0  0  0  0  0
   -4.0389   -6.8176   -0.7177 O   0  0  0  0  0  0  0  0  0  0  0  0
   -3.0746   -5.3878    0.9911 C   0  0  0  0  0  0  0  0  0  0  0  0
   -2.7206   -3.9245    1.3141 C   0  0  0  0  0  0  0  0  0  0  0  0
   -1.7315   -3.2746    0.2923 C   0  0  1  0  0  0  0  0  0  0  0  0
   -0.3409   -3.9714    0.3693 C   0  0  0  0  0  0  0  0  0  0  0  0
   -1.6389   -1.7264    0.6221 C   0  0  1  0  0  0  0  0  0  0  0  0
   -0.7894   -1.4392    1.9122 C   0  0  0  0  0  0  0  0  0  0  0  0
   -0.6139    0.0610    2.2011 C   0  0  0  0  0  0  0  0  0  0  0  0
    0.0012    0.7820    0.9747 C   0  0  2  0  0  0  0  0  0  0  0  0
    1.4602    0.2740    0.7169 C   0  0  0  0  0  0  0  0  0  0  0  0
    4.8379    7.8441   -0.6701 H   0  0  0  0  0  0  0  0  0  0  0  0
    4.1107    6.9065   -2.0373 H   0  0  0  0  0  0  0  0  0  0  0  0
    3.0663    7.5605   -0.7174 H   0  0  0  0  0  0  0  0  0  0  0  0
    4.1036    6.0832    0.9364 H   0  0  0  0  0  0  0  0  0  0  0  0
    5.7508    4.9953   -1.4724 H   0  0  0  0  0  0  0  0  0  0  0  0
    5.7869    4.2990    0.1878 H   0  0  0  0  0  0  0  0  0  0  0  0
    6.4149    5.9639   -0.1136 H   0  0  0  0  0  0  0  0  0  0  0  0
    3.4855    4.3256   -1.5166 H   0  0  0  0  0  0  0  0  0  0  0  0
    2.2000    5.2956   -0.8062 H   0  0  0  0  0  0  0  0  0  0  0  0
    3.7372    3.2316    0.9573 H   0  0  0  0  0  0  0  0  0  0  0  0
    2.4069    2.8774   -0.1027 H   0  0  0  0  0  0  0  0  0  0  0  0
    1.0802    4.8906    1.0237 H   0  0  0  0  0  0  0  0  0  0  0  0
    2.3286    4.7627    2.2939 H   0  0  0  0  0  0  0  0  0  0  0  0
    1.5272    2.3474    2.6517 H   0  0  0  0  0  0  0  0  0  0  0  0
   -0.6557    4.5060    2.7608 H   0  0  0  0  0  0  0  0  0  0  0  0
    0.6338    4.2179    3.9903 H   0  0  0  0  0  0  0  0  0  0  0  0
   -0.6268    2.9710    3.7060 H   0  0  0  0  0  0  0  0  0  0  0  0
   -1.0802    2.4868    1.4522 H   0  0  0  0  0  0  0  0  0  0  0  0
    0.5823    3.4225   -0.8914 H   0  0  0  0  0  0  0  0  0  0  0  0
   -1.1075    3.5075   -0.4254 H   0  0  0  0  0  0  0  0  0  0  0  0
    0.5171    1.1923   -1.6271 H   0  0  0  0  0  0  0  0  0  0  0  0
   -1.0612    1.7581   -2.1431 H   0  0  0  0  0  0  0  0  0  0  0  0
   -1.9653    0.9165    0.1314 H   0  0  0  0  0  0  0  0  0  0  0  0
   -0.1804   -1.3195   -0.9384 H   0  0  0  0  0  0  0  0  0  0  0  0
   -1.6461   -0.7487   -2.7315 H   0  0  0  0  0  0  0  0  0  0  0  0
   -4.2048   -0.8843   -2.5722 H   0  0  0  0  0  0  0  0  0  0  0  0
   -4.1027   -0.6102   -0.8167 H   0  0  0  0  0  0  0  0  0  0  0  0
   -4.5928    1.3143   -2.2209 H   0  0  0  0  0  0  0  0  0  0  0  0
   -3.1077    1.1847   -3.0104 H   0  0  0  0  0  0  0  0  0  0  0  0
   -3.2093    1.6215   -1.3542 H   0  0  0  0  0  0  0  0  0  0  0  0
   -2.9114   -2.8374   -2.9892 H   0  0  0  0  0  0  0  0  0  0  0  0
   -1.7673   -5.6107   -1.4834 H   0  0  0  0  0  0  0  0  0  0  0  0
   -3.1239   -5.0371   -2.4855 H   0  0  0  0  0  0  0  0  0  0  0  0
   -4.5854   -4.8682   -0.4739 H   0  0  0  0  0  0  0  0  0  0  0  0
   -3.2226   -7.3806   -0.6620 H   0  0  0  0  0  0  0  0  0  0  0  0
   -2.1748   -6.0315    1.0816 H   0  0  0  0  0  0  0  0  0  0  0  0
   -3.8217   -5.7503    1.7304 H   0  0  0  0  0  0  0  0  0  0  0  0
   -2.3181   -3.8708    2.3469 H   0  0  0  0  0  0  0  0  0  0  0  0
   -3.6779   -3.3560    1.2967 H   0  0  0  0  0  0  0  0  0  0  0  0
   -0.3804   -5.0462    0.1144 H   0  0  0  0  0  0  0  0  0  0  0  0
    0.0767   -3.9489    1.3947 H   0  0  0  0  0  0  0  0  0  0  0  0
    0.3784   -3.4967   -0.3299 H   0  0  0  0  0  0  0  0  0  0  0  0
   -2.6611   -1.3399    0.8289 H   0  0  0  0  0  0  0  0  0  0  0  0
    0.2236   -1.8632    1.8253 H   0  0  0  0  0  0  0  0  0  0  0  0
   -1.2604   -1.9151    2.7964 H   0  0  0  0  0  0  0  0  0  0  0  0
    0.0182    0.2119    3.1028 H   0  0  0  0  0  0  0  0  0  0  0  0
   -1.6207    0.4783    2.4251 H   0  0  0  0  0  0  0  0  0  0  0  0
    2.0959    0.4472    1.6085 H   0  0  0  0  0  0  0  0  0  0  0  0
    1.9620    0.7630   -0.1324 H   0  0  0  0  0  0  0  0  0  0  0  0
    1.5108   -0.8066    0.4928 H   0  0  0  0  0  0  0  0  0  0  0  0
  1 31  1  0  0  0  0
  1 32  1  0  0  0  0
  1 33  1  0  0  0  0
  2  1  1  0  0  0  0
  2 34  1  0  0  0  0
  3  2  1  0  0  0  0
  3 35  1  0  0  0  0
  3 36  1  0  0  0  0
  3 37  1  0  0  0  0
  4  2  1  0  0  0  0
  4 38  1  0  0  0  0
  4 39  1  0  0  0  0
  5  4  1  0  0  0  0
  5 40  1  0  0  0  0
  5 41  1  0  0  0  0
  6  5  1  0  0  0  0
  6 42  1  0  0  0  0
  6 43  1  0  0  0  0
  7  6  1  0  0  0  0
  7 44  1  1  0  0  0
  8  7  1  0  0  0  0
  8 45  1  0  0  0  0
  8 46  1  0  0  0  0
  8 47  1  0  0  0  0
  9  7  1  0  0  0  0
  9 48  1  1  0  0  0
 10  9  1  0  0  0  0
 10 49  1  0  0  0  0
 10 50  1  0  0  0  0
 11 10  1  0  0  0  0
 11 51  1  0  0  0  0
 11 52  1  0  0  0  0
 12 11  1  0  0  0  0
 12 53  1  1  0  0  0
 13 12  1  0  0  0  0
 13 54  1  6  0  0  0
 14 13  1  0  0  0  0
 14 55  1  6  0  0  0
 15 14  1  0  0  0  0
 15 56  1  0  0  0  0
 15 57  1  0  0  0  0
 16 15  1  0  0  0  0
 16 58  1  0  0  0  0
 16 59  1  0  0  0  0
 16 60  1  0  0  0  0
 17 14  1  0  0  0  0
 17 61  1  0  0  0  0
 18 17  2  0  0  0  0
 19 18  1  0  0  0  0
 19 62  1  0  0  0  0
 19 63  1  0  0  0  0
 20 19  1  0  0  0  0
 20 64  1  6  0  0  0
 21 20  1  0  0  0  0
 21 65  1  0  0  0  0
 22 20  1  0  0  0  0
 22 66  1  0  0  0  0
 22 67  1  0  0  0  0
 23 22  1  0  0  0  0
 23 68  1  0  0  0  0
 23 69  1  0  0  0  0
 24 23  1  0  0  0  0
 24 18  1  0  0  0  0
 24 25  1  1  0  0  0
 25 70  1  0  0  0  0
 25 71  1  0  0  0  0
 25 72  1  0  0  0  0
 26 24  1  0  0  0  0
 26 13  1  0  0  0  0
 26 73  1  1  0  0  0
 27 26  1  0  0  0  0
 27 74  1  0  0  0  0
 27 75  1  0  0  0  0
 28 27  1  0  0  0  0
 28 76  1  0  0  0  0
 28 77  1  0  0  0  0
 29 28  1  0  0  0  0
 29  9  1  0  0  0  0
 29 12  1  0  0  0  0
 29 30  1  6  0  0  0
 30 78  1  0  0  0  0
 30 79  1  0  0  0  0
 30 80  1  0  0  0  0
M  CHG  1  16   1
M  END
>  <MOL Chiral Flag>
0

>  <energy>
141.87610312140461

$$$$
