>619.sdf
 OpenBabel10062215573D

 55 57  0  0  0  0  0  0  0  0999 V2000
   -1.2936   -6.0973    4.3661 C   0  0  0  0  0  0  0  0  0  0  0  0
   -2.6861   -5.5239    4.2765 C   0  0  0  0  0  0  0  0  0  0  0  0
   -3.6598   -5.8229    5.3866 C   0  0  0  0  0  0  0  0  0  0  0  0
   -3.0684   -4.7577    3.2302 C   0  0  0  0  0  0  0  0  0  0  0  0
   -2.1409   -4.4228    2.0854 C   0  0  0  0  0  0  0  0  0  0  0  0
   -2.8517   -3.5398    1.0411 C   0  0  0  0  0  0  0  0  0  0  0  0
   -2.0019   -3.1278   -0.1912 C   0  0  1  0  0  0  0  0  0  0  0  0
   -1.5296   -4.3562   -0.9845 C   0  0  0  0  0  0  0  0  0  0  0  0
   -2.8366   -2.3914   -1.0281 O   0  0  0  0  0  0  0  0  0  0  0  0
   -2.6486   -1.1103   -1.4312 C   0  0  0  0  0  0  0  0  0  0  0  0
   -1.5219   -0.3851   -1.0218 C   0  0  0  0  0  0  0  0  0  0  0  0
   -0.5583   -1.0776   -0.1343 C   0  0  0  0  0  0  0  0  0  0  0  0
   -0.7744   -2.3404    0.2505 C   0  0  0  0  0  0  0  0  0  0  0  0
   -1.3451    0.9609   -1.4618 C   0  0  0  0  0  0  0  0  0  0  0  0
   -0.2785    1.6813   -1.0575 O   0  0  0  0  0  0  0  0  0  0  0  0
   -2.3175    1.5571   -2.3222 C   0  0  0  0  0  0  0  0  0  0  0  0
   -3.4392    0.7865   -2.6956 C   0  0  0  0  0  0  0  0  0  0  0  0
   -3.5965   -0.5227   -2.2583 C   0  0  0  0  0  0  0  0  0  0  0  0
   -2.2401    2.9710   -2.8625 C   0  0  0  0  0  0  0  0  0  0  0  0
   -3.2181    3.4097   -3.4544 O   0  0  0  0  0  0  0  0  0  0  0  0
   -1.0386    3.8605   -2.7586 C   0  0  0  0  0  0  0  0  0  0  0  0
   -1.0659    5.1291   -3.2238 C   0  0  0  0  0  0  0  0  0  0  0  0
    0.0887    6.0769   -3.1760 C   0  0  0  0  0  0  0  0  0  0  0  0
    1.3475    5.7386   -2.6293 C   0  0  0  0  0  0  0  0  0  0  0  0
    2.3872    6.6740   -2.6179 C   0  0  0  0  0  0  0  0  0  0  0  0
    2.1918    7.9558   -3.1479 C   0  0  0  0  0  0  0  0  0  0  0  0
    3.1895    8.8631   -3.1409 O   0  0  0  0  0  0  0  0  0  0  0  0
    0.9511    8.2981   -3.6895 C   0  0  0  0  0  0  0  0  0  0  0  0
   -0.0920    7.3681   -3.7042 C   0  0  0  0  0  0  0  0  0  0  0  0
   -0.5437   -5.2789    4.3829 H   0  0  0  0  0  0  0  0  0  0  0  0
   -1.0972   -6.7619    3.4988 H   0  0  0  0  0  0  0  0  0  0  0  0
   -1.1719   -6.6959    5.2938 H   0  0  0  0  0  0  0  0  0  0  0  0
   -3.2536   -5.4422    6.3471 H   0  0  0  0  0  0  0  0  0  0  0  0
   -4.6517   -5.3518    5.2168 H   0  0  0  0  0  0  0  0  0  0  0  0
   -3.8051   -6.9207    5.4649 H   0  0  0  0  0  0  0  0  0  0  0  0
   -4.0824   -4.3651    3.2061 H   0  0  0  0  0  0  0  0  0  0  0  0
   -1.2594   -3.8879    2.4938 H   0  0  0  0  0  0  0  0  0  0  0  0
   -1.8140   -5.3718    1.6138 H   0  0  0  0  0  0  0  0  0  0  0  0
   -3.7507   -4.0871    0.6781 H   0  0  0  0  0  0  0  0  0  0  0  0
   -3.2024   -2.6114    1.5459 H   0  0  0  0  0  0  0  0  0  0  0  0
   -0.8451   -4.9947   -0.3884 H   0  0  0  0  0  0  0  0  0  0  0  0
   -0.9784   -4.0306   -1.8933 H   0  0  0  0  0  0  0  0  0  0  0  0
   -2.3998   -4.9670   -1.3075 H   0  0  0  0  0  0  0  0  0  0  0  0
    0.3403   -0.5946    0.2223 H   0  0  0  0  0  0  0  0  0  0  0  0
   -0.0405   -2.8172    0.8930 H   0  0  0  0  0  0  0  0  0  0  0  0
    0.4180    1.3670   -0.4718 H   0  0  0  0  0  0  0  0  0  0  0  0
   -4.2031    1.1991   -3.3426 H   0  0  0  0  0  0  0  0  0  0  0  0
   -4.4663   -1.0887   -2.5682 H   0  0  0  0  0  0  0  0  0  0  0  0
   -0.1327    3.4921   -2.3312 H   0  0  0  0  0  0  0  0  0  0  0  0
   -1.9860    5.5000   -3.6675 H   0  0  0  0  0  0  0  0  0  0  0  0
    1.5445    4.7651   -2.2105 H   0  0  0  0  0  0  0  0  0  0  0  0
    3.3464    6.4007   -2.1960 H   0  0  0  0  0  0  0  0  0  0  0  0
    4.0614    8.6582   -2.7737 H   0  0  0  0  0  0  0  0  0  0  0  0
    0.7939    9.2874   -4.1008 H   0  0  0  0  0  0  0  0  0  0  0  0
   -1.0456    7.6561   -4.1300 H   0  0  0  0  0  0  0  0  0  0  0  0
  1 30  1  0  0  0  0
  1 31  1  0  0  0  0
  1 32  1  0  0  0  0
  2  1  1  0  0  0  0
  3  2  1  0  0  0  0
  3 33  1  0  0  0  0
  3 34  1  0  0  0  0
  3 35  1  0  0  0  0
  4  2  2  0  0  0  0
  4 36  1  0  0  0  0
  5  4  1  0  0  0  0
  5 37  1  0  0  0  0
  5 38  1  0  0  0  0
  6  5  1  0  0  0  0
  6 39  1  0  0  0  0
  6 40  1  0  0  0  0
  7  6  1  1  0  0  0
  8  7  1  0  0  0  0
  8 41  1  0  0  0  0
  8 42  1  0  0  0  0
  8 43  1  0  0  0  0
  9  7  1  0  0  0  0
 10  9  1  0  0  0  0
 11 10  2  0  0  0  0
 12 11  1  0  0  0  0
 12 44  1  0  0  0  0
 13 12  2  0  0  0  0
 13  7  1  0  0  0  0
 13 45  1  0  0  0  0
 14 11  1  0  0  0  0
 15 14  1  0  0  0  0
 15 46  1  0  0  0  0
 16 14  2  0  0  0  0
 17 16  1  0  0  0  0
 17 47  1  0  0  0  0
 18 17  2  0  0  0  0
 18 10  1  0  0  0  0
 18 48  1  0  0  0  0
 19 16  1  0  0  0  0
 20 19  2  0  0  0  0
 21 19  1  0  0  0  0
 21 49  1  0  0  0  0
 22 21  2  0  0  0  0
 22 50  1  0  0  0  0
 23 22  1  0  0  0  0
 24 23  2  0  0  0  0
 24 51  1  0  0  0  0
 25 24  1  0  0  0  0
 25 52  1  0  0  0  0
 26 25  2  0  0  0  0
 27 26  1  0  0  0  0
 27 53  1  0  0  0  0
 28 26  1  0  0  0  0
 28 54  1  0  0  0  0
 29 28  2  0  0  0  0
 29 23  1  0  0  0  0
 29 55  1  0  0  0  0
M  END
>  <MOL Chiral Flag>
0

>  <energy>
108.26467626386308

$$$$
