>61_alt.sdf
 OpenBabel10062217243D

 54 59  0  0  0  0  0  0  0  0999 V2000
    4.2991    4.6004    2.8469 C   0  0  0  0  0  0  0  0  0  0  0  0
    3.9183    3.4053    2.2741 O   0  0  0  0  0  0  0  0  0  0  0  0
    2.6298    2.9746    2.2172 C   0  0  0  0  0  0  0  0  0  0  0  0
    1.7267    3.6539    2.6863 O   0  0  0  0  0  0  0  0  0  0  0  0
    2.3182    1.6732    1.5917 C   0  0  0  0  0  0  0  0  0  0  0  0
    1.0188    1.2208    1.5646 N   0  0  0  0  0  0  0  0  0  0  0  0
    0.6670    0.0266    0.9945 C   0  0  0  0  0  0  0  0  0  0  0  0
   -0.7648   -0.4818    1.0586 C   0  0  1  0  0  0  0  0  0  0  0  0
   -1.2326   -0.6676    2.4127 N   0  0  0  0  0  0  0  0  0  0  0  0
   -2.4835   -1.3176    2.5603 C   0  0  0  0  0  0  0  0  0  0  0  0
   -2.7903   -2.0358    3.7206 C   0  0  0  0  0  0  0  0  0  0  0  0
   -4.0116   -2.7077    3.8175 C   0  0  0  0  0  0  0  0  0  0  0  0
   -4.9328   -2.6486    2.7646 C   0  0  0  0  0  0  0  0  0  0  0  0
   -4.6434   -1.9044    1.6134 C   0  0  0  0  0  0  0  0  0  0  0  0
   -3.4122   -1.2392    1.5029 C   0  0  0  0  0  0  0  0  0  0  0  0
   -3.0736   -0.3603    0.3385 C   0  0  0  0  0  0  0  0  0  0  0  0
   -3.9525   -0.0230   -0.4422 O   0  0  0  0  0  0  0  0  0  0  0  0
   -1.8009    0.1580    0.2383 N   0  0  0  0  0  0  0  0  0  0  0  0
   -1.4892    1.1524   -0.7469 C   0  0  0  0  0  0  0  0  0  0  0  0
   -0.9462    2.3899   -0.3614 C   0  0  0  0  0  0  0  0  0  0  0  0
   -0.6602    3.3675   -1.3179 C   0  0  0  0  0  0  0  0  0  0  0  0
   -0.9115    3.1202   -2.6700 C   0  0  0  0  0  0  0  0  0  0  0  0
   -0.5484    4.3490   -3.8682 Cl  0  0  0  0  0  0  0  0  0  0  0  0
   -1.4610    1.8965   -3.0645 C   0  0  0  0  0  0  0  0  0  0  0  0
   -1.7576    0.9191   -2.1084 C   0  0  0  0  0  0  0  0  0  0  0  0
    1.6918   -0.7566    0.4356 C   0  0  0  0  0  0  0  0  0  0  0  0
    1.6062   -1.9710   -0.1653 N   0  0  0  0  0  0  0  0  0  0  0  0
    2.8674   -2.3051   -0.4981 C   0  0  0  0  0  0  0  0  0  0  0  0
    3.7511   -1.3207   -0.1217 C   0  0  0  0  0  0  0  0  0  0  0  0
    5.1201   -1.4469   -0.3478 C   0  0  0  0  0  0  0  0  0  0  0  0
    5.5785   -2.6210   -0.9787 C   0  0  0  0  0  0  0  0  0  0  0  0
    4.6648   -3.6293   -1.3685 C   0  0  0  0  0  0  0  0  0  0  0  0
    3.2886   -3.4720   -1.1273 C   0  0  0  0  0  0  0  0  0  0  0  0
    2.9978   -0.3293    0.4694 C   0  0  0  0  0  0  0  0  0  0  0  0
    3.3514    0.8854    1.0377 C   0  0  0  0  0  0  0  0  0  0  0  0
    4.0151    4.6195    3.9208 H   0  0  0  0  0  0  0  0  0  0  0  0
    5.4013    4.7042    2.7695 H   0  0  0  0  0  0  0  0  0  0  0  0
    3.8224    5.4507    2.3143 H   0  0  0  0  0  0  0  0  0  0  0  0
   -0.7404   -1.5093    0.6540 H   0  0  0  0  0  0  0  0  0  0  0  0
   -0.5961   -0.5444    3.2151 H   0  0  0  0  0  0  0  0  0  0  0  0
   -2.0770   -2.0913    4.5335 H   0  0  0  0  0  0  0  0  0  0  0  0
   -4.2429   -3.2776    4.7081 H   0  0  0  0  0  0  0  0  0  0  0  0
   -5.8765   -3.1716    2.8465 H   0  0  0  0  0  0  0  0  0  0  0  0
   -5.3730   -1.8491    0.8159 H   0  0  0  0  0  0  0  0  0  0  0  0
   -0.7734    2.6108    0.6807 H   0  0  0  0  0  0  0  0  0  0  0  0
   -0.2498    4.3197   -1.0060 H   0  0  0  0  0  0  0  0  0  0  0  0
   -1.6598    1.7034   -4.1110 H   0  0  0  0  0  0  0  0  0  0  0  0
   -2.1806   -0.0248   -2.4280 H   0  0  0  0  0  0  0  0  0  0  0  0
    0.7654   -2.5602   -0.3473 H   0  0  0  0  0  0  0  0  0  0  0  0
    5.8122   -0.6732   -0.0435 H   0  0  0  0  0  0  0  0  0  0  0  0
    6.6356   -2.7546   -1.1649 H   0  0  0  0  0  0  0  0  0  0  0  0
    5.0251   -4.5281   -1.8515 H   0  0  0  0  0  0  0  0  0  0  0  0
    2.5795   -4.2373   -1.4169 H   0  0  0  0  0  0  0  0  0  0  0  0
    4.3854    1.2057    1.0558 H   0  0  0  0  0  0  0  0  0  0  0  0
  1 36  1  0  0  0  0
  1 37  1  0  0  0  0
  1 38  1  0  0  0  0
  2  1  1  0  0  0  0
  3  2  1  0  0  0  0
  4  3  2  0  0  0  0
  5  3  1  0  0  0  0
  6  5  2  0  0  0  0
  7  6  1  0  0  0  0
  8  7  1  0  0  0  0
  8 39  1  6  0  0  0
  9  8  1  0  0  0  0
  9 40  1  0  0  0  0
 10  9  1  0  0  0  0
 11 10  2  0  0  0  0
 11 41  1  0  0  0  0
 12 11  1  0  0  0  0
 12 42  1  0  0  0  0
 13 12  2  0  0  0  0
 13 43  1  0  0  0  0
 14 13  1  0  0  0  0
 14 44  1  0  0  0  0
 15 14  2  0  0  0  0
 15 10  1  0  0  0  0
 16 15  1  0  0  0  0
 17 16  2  0  0  0  0
 18 16  1  0  0  0  0
 18  8  1  0  0  0  0
 19 18  1  0  0  0  0
 20 19  2  0  0  0  0
 20 45  1  0  0  0  0
 21 20  1  0  0  0  0
 21 46  1  0  0  0  0
 22 21  2  0  0  0  0
 23 22  1  0  0  0  0
 24 22  1  0  0  0  0
 24 47  1  0  0  0  0
 25 24  2  0  0  0  0
 25 19  1  0  0  0  0
 25 48  1  0  0  0  0
 26  7  2  0  0  0  0
 27 26  1  0  0  0  0
 27 49  1  0  0  0  0
 28 27  1  0  0  0  0
 29 28  2  0  0  0  0
 30 29  1  0  0  0  0
 30 50  1  0  0  0  0
 31 30  2  0  0  0  0
 31 51  1  0  0  0  0
 32 31  1  0  0  0  0
 32 52  1  0  0  0  0
 33 32  2  0  0  0  0
 33 28  1  0  0  0  0
 33 53  1  0  0  0  0
 34 29  1  0  0  0  0
 34 26  1  0  0  0  0
 35 34  2  0  0  0  0
 35  5  1  0  0  0  0
 35 54  1  0  0  0  0
M  END
>  <MOL Chiral Flag>
0

>  <energy>
128.99536594929012

$$$$
