>62.sdf
 OpenBabel10052218163D

 52 52  0  0  0  0  0  0  0  0999 V2000
   -4.1178    3.2376    1.2409 C   0  0  0  0  0  0  0  0  0  0  0  0
   -3.0094    2.6703    0.6497 O   0  0  0  0  0  0  0  0  0  0  0  0
   -2.8598    1.3289    0.4916 C   0  0  0  0  0  0  0  0  0  0  0  0
   -3.7890    0.5752    0.7541 O   0  0  0  0  0  0  0  0  0  0  0  0
   -1.5101    0.7795    0.0407 C   0  0  2  0  0  0  0  0  0  0  0  0
   -0.4954    1.2729    1.1024 C   0  0  0  0  0  0  0  0  0  0  0  0
   -1.1093    1.3450   -1.3665 C   0  0  0  0  0  0  0  0  0  0  0  0
   -2.0736    1.0420   -2.5504 C   0  0  0  0  0  0  0  0  0  0  0  0
   -1.3105    1.1423   -3.8817 C   0  0  0  0  0  0  0  0  0  0  0  0
   -3.2589    2.0256   -2.6041 C   0  0  0  0  0  0  0  0  0  0  0  0
   -1.5133   -0.6986    0.0363 N   0  0  0  0  0  0  0  0  0  0  0  0
   -0.3959   -1.4575   -0.1763 C   0  0  0  0  0  0  0  0  0  0  0  0
    0.6708   -0.9352   -0.4567 O   0  0  0  0  0  0  0  0  0  0  0  0
   -0.4591   -2.9506   -0.0185 C   0  0  0  0  0  0  0  0  0  0  0  0
    1.1925   -3.7079   -0.2419 S   0  0  0  0  0  0  0  0  0  0  0  0
    1.8572   -3.3749    1.4421 C   0  0  0  0  0  0  0  0  0  0  0  0
    3.2925   -2.8276    1.3685 C   0  0  0  0  0  0  0  0  0  0  0  0
    3.3337   -1.3816    1.0774 N   0  0  0  0  0  0  0  0  0  0  0  0
    3.0927   -0.3894    1.9781 C   0  0  0  0  0  0  0  0  0  0  0  0
    2.7385   -0.5789    3.4249 C   0  0  0  0  0  0  0  0  0  0  0  0
    3.2508    0.8397    1.4412 N   0  0  0  0  0  0  0  0  0  0  0  0
    3.6041    0.6278    0.1609 C   0  0  0  0  0  0  0  0  0  0  0  0
    3.6630   -0.7318   -0.0681 C   0  0  0  0  0  0  0  0  0  0  0  0
    3.9989   -1.3240   -1.3216 N   0  0  0  0  0  0  0  0  0  0  0  0
    4.2551   -0.6245   -2.2558 O   0  0  0  0  0  0  0  0  0  0  0  0
    3.9852   -2.5059   -1.4664 O   0  0  0  0  0  0  0  0  0  0  0  0
   -4.0076    4.3406    1.2360 H   0  0  0  0  0  0  0  0  0  0  0  0
   -4.1980    2.8932    2.2952 H   0  0  0  0  0  0  0  0  0  0  0  0
   -5.0394    2.9616    0.6858 H   0  0  0  0  0  0  0  0  0  0  0  0
   -0.4957    2.3812    1.1701 H   0  0  0  0  0  0  0  0  0  0  0  0
    0.5451    0.9819    0.8739 H   0  0  0  0  0  0  0  0  0  0  0  0
   -0.7548    0.8574    2.1008 H   0  0  0  0  0  0  0  0  0  0  0  0
   -0.1227    0.9131   -1.6173 H   0  0  0  0  0  0  0  0  0  0  0  0
   -0.9359    2.4428   -1.3233 H   0  0  0  0  0  0  0  0  0  0  0  0
   -2.4449   -0.0033   -2.4768 H   0  0  0  0  0  0  0  0  0  0  0  0
   -0.8791    2.1564   -4.0219 H   0  0  0  0  0  0  0  0  0  0  0  0
   -1.9879    0.9182   -4.7343 H   0  0  0  0  0  0  0  0  0  0  0  0
   -0.4875    0.3957   -3.9066 H   0  0  0  0  0  0  0  0  0  0  0  0
   -2.8857    3.0704   -2.6961 H   0  0  0  0  0  0  0  0  0  0  0  0
   -3.9109    1.9614   -1.7176 H   0  0  0  0  0  0  0  0  0  0  0  0
   -3.8986    1.8117   -3.4864 H   0  0  0  0  0  0  0  0  0  0  0  0
   -2.3811   -1.2051    0.2666 H   0  0  0  0  0  0  0  0  0  0  0  0
   -1.1596   -3.3843   -0.7632 H   0  0  0  0  0  0  0  0  0  0  0  0
   -0.8533   -3.2240    0.9833 H   0  0  0  0  0  0  0  0  0  0  0  0
    1.8709   -4.3577    1.9565 H   0  0  0  0  0  0  0  0  0  0  0  0
    1.2185   -2.6916    2.0420 H   0  0  0  0  0  0  0  0  0  0  0  0
    3.8727   -3.4340    0.6503 H   0  0  0  0  0  0  0  0  0  0  0  0
    3.8127   -2.9891    2.3358 H   0  0  0  0  0  0  0  0  0  0  0  0
    2.6586   -1.6431    3.7159 H   0  0  0  0  0  0  0  0  0  0  0  0
    1.7691   -0.0834    3.6366 H   0  0  0  0  0  0  0  0  0  0  0  0
    3.5258   -0.1094    4.0528 H   0  0  0  0  0  0  0  0  0  0  0  0
    3.8056    1.4174   -0.5512 H   0  0  0  0  0  0  0  0  0  0  0  0
  1 27  1  0  0  0  0
  1 28  1  0  0  0  0
  1 29  1  0  0  0  0
  2  1  1  0  0  0  0
  3  2  1  0  0  0  0
  4  3  2  0  0  0  0
  5  3  1  1  0  0  0
  6  5  1  0  0  0  0
  6 30  1  0  0  0  0
  6 31  1  0  0  0  0
  6 32  1  0  0  0  0
  7  5  1  0  0  0  0
  7 33  1  0  0  0  0
  7 34  1  0  0  0  0
  8  7  1  0  0  0  0
  8 35  1  0  0  0  0
  9  8  1  0  0  0  0
  9 36  1  0  0  0  0
  9 37  1  0  0  0  0
  9 38  1  0  0  0  0
 10  8  1  0  0  0  0
 10 39  1  0  0  0  0
 10 40  1  0  0  0  0
 10 41  1  0  0  0  0
 11  5  1  0  0  0  0
 11 42  1  0  0  0  0
 12 11  1  0  0  0  0
 13 12  2  0  0  0  0
 14 12  1  0  0  0  0
 14 43  1  0  0  0  0
 14 44  1  0  0  0  0
 15 14  1  0  0  0  0
 16 15  1  0  0  0  0
 16 45  1  0  0  0  0
 16 46  1  0  0  0  0
 17 16  1  0  0  0  0
 17 47  1  0  0  0  0
 17 48  1  0  0  0  0
 18 17  1  0  0  0  0
 19 18  1  0  0  0  0
 20 19  1  0  0  0  0
 20 49  1  0  0  0  0
 20 50  1  0  0  0  0
 20 51  1  0  0  0  0
 21 19  2  0  0  0  0
 22 21  1  0  0  0  0
 22 52  1  0  0  0  0
 23 22  2  0  0  0  0
 23 18  1  0  0  0  0
 24 23  1  0  0  0  0
 25 24  2  0  0  0  0
 26 24  2  0  0  0  0
M  END
>  <MOL Chiral Flag>
0

>  <energy>
70.855552871053959

$$$$
