>620.sdf
 OpenBabel10062215583D

 31 33  0  0  0  0  0  0  0  0999 V2000
   -2.1280    1.7923    2.0433 O   0  0  0  0  0  0  0  0  0  0  0  0
   -2.7731    1.4681    0.8400 C   0  0  0  0  0  0  0  0  0  0  0  0
   -2.5108    0.0272    0.4689 C   0  0  0  0  0  0  0  0  0  0  0  0
   -3.5697   -0.8961    0.4684 C   0  0  0  0  0  0  0  0  0  0  0  0
   -3.3426   -2.2356    0.1413 C   0  0  0  0  0  0  0  0  0  0  0  0
   -2.0592   -2.6720   -0.1952 C   0  0  0  0  0  0  0  0  0  0  0  0
   -0.9908   -1.7653   -0.2083 C   0  0  0  0  0  0  0  0  0  0  0  0
    0.3041   -2.1836   -0.5432 C   0  0  0  0  0  0  0  0  0  0  0  0
    1.3573   -1.2596   -0.5417 C   0  0  0  0  0  0  0  0  0  0  0  0
    2.6634   -1.6590   -0.8577 C   0  0  0  0  0  0  0  0  0  0  0  0
    3.7038   -0.7284   -0.8351 C   0  0  0  0  0  0  0  0  0  0  0  0
    3.4513    0.6051   -0.5029 C   0  0  0  0  0  0  0  0  0  0  0  0
    2.1480    1.0307   -0.1944 C   0  0  0  0  0  0  0  0  0  0  0  0
    1.9136    2.4813    0.1565 C   0  0  0  0  0  0  0  0  0  0  0  0
    2.3571    3.2947   -0.8940 O   0  0  0  0  0  0  0  0  0  0  0  0
    1.0948    0.0895   -0.2106 C   0  0  0  0  0  0  0  0  0  0  0  0
   -0.1743    0.4667    0.1054 N   0  0  0  0  0  0  0  0  0  0  0  0
   -1.2136   -0.4099    0.1236 C   0  0  0  0  0  0  0  0  0  0  0  0
   -1.1822    1.9974    1.8303 H   0  0  0  0  0  0  0  0  0  0  0  0
   -3.8591    1.6458    0.9899 H   0  0  0  0  0  0  0  0  0  0  0  0
   -2.4579    2.1497    0.0173 H   0  0  0  0  0  0  0  0  0  0  0  0
   -4.5718   -0.5800    0.7307 H   0  0  0  0  0  0  0  0  0  0  0  0
   -4.1654   -2.9386    0.1517 H   0  0  0  0  0  0  0  0  0  0  0  0
   -1.9006   -3.7144   -0.4442 H   0  0  0  0  0  0  0  0  0  0  0  0
    0.4912   -3.2217   -0.7960 H   0  0  0  0  0  0  0  0  0  0  0  0
    2.8772   -2.6896   -1.1145 H   0  0  0  0  0  0  0  0  0  0  0  0
    4.7119   -1.0415   -1.0743 H   0  0  0  0  0  0  0  0  0  0  0  0
    4.2718    1.3121   -0.4888 H   0  0  0  0  0  0  0  0  0  0  0  0
    0.8384    2.6904    0.3446 H   0  0  0  0  0  0  0  0  0  0  0  0
    2.4879    2.7130    1.0807 H   0  0  0  0  0  0  0  0  0  0  0  0
    2.2271    4.2313   -0.5918 H   0  0  0  0  0  0  0  0  0  0  0  0
  1 19  1  0  0  0  0
  2  1  1  0  0  0  0
  2 20  1  0  0  0  0
  2 21  1  0  0  0  0
  3  2  1  0  0  0  0
  4  3  2  0  0  0  0
  4 22  1  0  0  0  0
  5  4  1  0  0  0  0
  5 23  1  0  0  0  0
  6  5  2  0  0  0  0
  6 24  1  0  0  0  0
  7  6  1  0  0  0  0
  8  7  2  0  0  0  0
  8 25  1  0  0  0  0
  9  8  1  0  0  0  0
 10  9  2  0  0  0  0
 10 26  1  0  0  0  0
 11 10  1  0  0  0  0
 11 27  1  0  0  0  0
 12 11  2  0  0  0  0
 12 28  1  0  0  0  0
 13 12  1  0  0  0  0
 14 13  1  0  0  0  0
 14 29  1  0  0  0  0
 14 30  1  0  0  0  0
 15 14  1  0  0  0  0
 15 31  1  0  0  0  0
 16 13  2  0  0  0  0
 16  9  1  0  0  0  0
 17 16  1  0  0  0  0
 18 17  2  0  0  0  0
 18  3  1  0  0  0  0
 18  7  1  0  0  0  0
M  END
>  <MOL Chiral Flag>
0

>  <energy>
45.782405306929483

$$$$
