>621.sdf
 OpenBabel10062215583D

 28 30  0  0  0  0  0  0  0  0999 V2000
   -3.9931   -0.5938   -0.4021 C   0  0  0  0  0  0  0  0  0  0  0  0
   -3.2232    0.5547    0.1939 C   0  0  0  0  0  0  0  0  0  0  0  0
   -3.8737    1.5022    0.6020 O   0  0  0  0  0  0  0  0  0  0  0  0
   -1.7071    0.5844    0.2608 C   0  0  0  0  0  0  0  0  0  0  0  0
   -0.9327   -0.5727   -0.0763 C   0  0  0  0  0  0  0  0  0  0  0  0
   -1.5232   -1.7330   -0.4330 O   0  0  0  0  0  0  0  0  0  0  0  0
    0.4634   -0.4901   -0.0304 C   0  0  0  0  0  0  0  0  0  0  0  0
    1.1038    0.6613    0.3309 C   0  0  0  0  0  0  0  0  0  0  0  0
    2.5854    0.4040    0.3033 C   0  0  1  0  0  0  0  0  0  0  0  0
    2.5348   -1.0661    0.7988 C   0  0  0  0  0  0  0  0  0  0  0  0
    1.5213   -1.5368   -0.2844 C   0  0  2  0  0  0  0  0  0  0  0  0
    2.2940   -1.0626   -1.4837 C   0  0  0  0  0  0  0  0  0  0  0  0
    2.9334    0.1080   -1.1316 C   0  0  0  0  0  0  0  0  0  0  0  0
    0.4122    1.8055    0.6927 C   0  0  0  0  0  0  0  0  0  0  0  0
    1.1099    2.9050    1.0579 O   0  0  0  0  0  0  0  0  0  0  0  0
   -1.0065    1.7844    0.6601 C   0  0  0  0  0  0  0  0  0  0  0  0
   -1.8632    3.2699    1.1039 Cl  0  0  0  0  0  0  0  0  0  0  0  0
   -3.8347   -1.5259    0.1764 H   0  0  0  0  0  0  0  0  0  0  0  0
   -5.0836   -0.3794   -0.3880 H   0  0  0  0  0  0  0  0  0  0  0  0
   -3.6897   -0.7326   -1.4617 H   0  0  0  0  0  0  0  0  0  0  0  0
   -1.0259   -2.5279   -0.6648 H   0  0  0  0  0  0  0  0  0  0  0  0
    3.2217    1.1697    0.7947 H   0  0  0  0  0  0  0  0  0  0  0  0
    3.5212   -1.5860    0.7412 H   0  0  0  0  0  0  0  0  0  0  0  0
    2.1495   -1.1677    1.8414 H   0  0  0  0  0  0  0  0  0  0  0  0
    1.1888   -2.5936   -0.3263 H   0  0  0  0  0  0  0  0  0  0  0  0
    2.4025   -1.5741   -2.4305 H   0  0  0  0  0  0  0  0  0  0  0  0
    3.6203    0.6557   -1.7624 H   0  0  0  0  0  0  0  0  0  0  0  0
    0.6947    3.7374    1.3171 H   0  0  0  0  0  0  0  0  0  0  0  0
  1 18  1  0  0  0  0
  1 19  1  0  0  0  0
  1 20  1  0  0  0  0
  2  1  1  0  0  0  0
  3  2  2  0  0  0  0
  4  2  1  0  0  0  0
  5  4  2  0  0  0  0
  6  5  1  0  0  0  0
  6 21  1  0  0  0  0
  7  5  1  0  0  0  0
  8  7  2  0  0  0  0
  9  8  1  0  0  0  0
  9 22  1  1  0  0  0
 10  9  1  0  0  0  0
 10 23  1  0  0  0  0
 10 24  1  0  0  0  0
 11 10  1  0  0  0  0
 11  7  1  0  0  0  0
 11 25  1  1  0  0  0
 12 11  1  0  0  0  0
 12 26  1  0  0  0  0
 13 12  2  0  0  0  0
 13  9  1  0  0  0  0
 13 27  1  0  0  0  0
 14  8  1  0  0  0  0
 15 14  1  0  0  0  0
 15 28  1  0  0  0  0
 16 14  2  0  0  0  0
 16  4  1  0  0  0  0
 17 16  1  0  0  0  0
M  END
>  <MOL Chiral Flag>
0

>  <energy>
85.149050252411286

$$$$
