>622.sdf
 OpenBabel10062215583D

 42 41  0  0  0  0  0  0  0  0999 V2000
   -4.4409   -1.8580   -3.1014 C   0  0  0  0  0  0  0  0  0  0  0  0
   -4.4286   -2.7834   -1.9079 C   0  0  0  0  0  0  0  0  0  0  0  0
   -5.6847   -3.5276   -1.5307 C   0  0  0  0  0  0  0  0  0  0  0  0
   -3.3110   -2.9766   -1.1711 C   0  0  0  0  0  0  0  0  0  0  0  0
   -1.9695   -2.3705   -1.5258 C   0  0  0  0  0  0  0  0  0  0  0  0
   -0.8876   -2.7808   -0.5024 C   0  0  0  0  0  0  0  0  0  0  0  0
    0.5247   -2.6225   -1.0454 C   0  0  0  0  0  0  0  0  0  0  0  0
    0.9267   -3.4975   -2.2076 C   0  0  0  0  0  0  0  0  0  0  0  0
    1.3836   -1.7478   -0.4605 C   0  0  0  0  0  0  0  0  0  0  0  0
    2.8143   -1.4460   -0.8895 C   0  0  0  0  0  0  0  0  0  0  0  0
    3.8181   -2.6237   -0.8403 C   0  0  0  0  0  0  0  0  0  0  0  0
    5.3241   -2.2068   -0.9224 C   0  0  2  0  0  0  0  0  0  0  0  0
    5.5626   -1.2129   -2.0778 C   0  0  0  0  0  0  0  0  0  0  0  0
    6.1002   -3.3558   -1.1832 O   0  0  0  0  0  0  0  0  0  0  0  0
    5.7836   -1.5896    0.3938 C   0  0  0  0  0  0  0  0  0  0  0  0
    7.0490   -1.2011    0.5982 C   0  0  0  0  0  0  0  0  0  0  0  0
   -3.6979   -2.1839   -3.8575 H   0  0  0  0  0  0  0  0  0  0  0  0
   -4.2049   -0.8241   -2.7713 H   0  0  0  0  0  0  0  0  0  0  0  0
   -5.4389   -1.8354   -3.5881 H   0  0  0  0  0  0  0  0  0  0  0  0
   -6.5260   -3.2949   -2.2167 H   0  0  0  0  0  0  0  0  0  0  0  0
   -5.9911   -3.2724   -0.4956 H   0  0  0  0  0  0  0  0  0  0  0  0
   -5.4926   -4.6212   -1.5927 H   0  0  0  0  0  0  0  0  0  0  0  0
   -3.3671   -3.6405   -0.3116 H   0  0  0  0  0  0  0  0  0  0  0  0
   -1.7174   -2.7647   -2.5307 H   0  0  0  0  0  0  0  0  0  0  0  0
   -2.0167   -1.2608   -1.5872 H   0  0  0  0  0  0  0  0  0  0  0  0
   -0.9910   -3.8562   -0.2439 H   0  0  0  0  0  0  0  0  0  0  0  0
   -1.0599   -2.1958    0.4295 H   0  0  0  0  0  0  0  0  0  0  0  0
    1.7106   -4.2087   -1.8890 H   0  0  0  0  0  0  0  0  0  0  0  0
    0.0814   -4.1403   -2.5330 H   0  0  0  0  0  0  0  0  0  0  0  0
    1.2613   -2.8883   -3.0705 H   0  0  0  0  0  0  0  0  0  0  0  0
    1.0175   -1.1691    0.3831 H   0  0  0  0  0  0  0  0  0  0  0  0
    2.8063   -1.0194   -1.9162 H   0  0  0  0  0  0  0  0  0  0  0  0
    3.1758   -0.6586   -0.1959 H   0  0  0  0  0  0  0  0  0  0  0  0
    3.6124   -3.2876   -1.6991 H   0  0  0  0  0  0  0  0  0  0  0  0
    3.6739   -3.2103    0.0944 H   0  0  0  0  0  0  0  0  0  0  0  0
    5.0383   -0.2511   -1.8896 H   0  0  0  0  0  0  0  0  0  0  0  0
    6.6425   -0.9797   -2.1878 H   0  0  0  0  0  0  0  0  0  0  0  0
    5.2059   -1.6373   -3.0391 H   0  0  0  0  0  0  0  0  0  0  0  0
    5.9612   -4.0004   -0.4412 H   0  0  0  0  0  0  0  0  0  0  0  0
    5.0738   -1.4794    1.2097 H   0  0  0  0  0  0  0  0  0  0  0  0
    7.8017   -1.3027   -0.1779 H   0  0  0  0  0  0  0  0  0  0  0  0
    7.3403   -0.7821    1.5559 H   0  0  0  0  0  0  0  0  0  0  0  0
  1 17  1  0  0  0  0
  1 18  1  0  0  0  0
  1 19  1  0  0  0  0
  2  1  1  0  0  0  0
  3  2  1  0  0  0  0
  3 20  1  0  0  0  0
  3 21  1  0  0  0  0
  3 22  1  0  0  0  0
  4  2  2  0  0  0  0
  4 23  1  0  0  0  0
  5  4  1  0  0  0  0
  5 24  1  0  0  0  0
  5 25  1  0  0  0  0
  6  5  1  0  0  0  0
  6 26  1  0  0  0  0
  6 27  1  0  0  0  0
  7  6  1  0  0  0  0
  8  7  1  0  0  0  0
  8 28  1  0  0  0  0
  8 29  1  0  0  0  0
  8 30  1  0  0  0  0
  9  7  2  0  0  0  0
  9 31  1  0  0  0  0
 10  9  1  0  0  0  0
 10 32  1  0  0  0  0
 10 33  1  0  0  0  0
 11 10  1  0  0  0  0
 11 34  1  0  0  0  0
 11 35  1  0  0  0  0
 12 11  1  1  0  0  0
 13 12  1  0  0  0  0
 13 36  1  0  0  0  0
 13 37  1  0  0  0  0
 13 38  1  0  0  0  0
 14 12  1  0  0  0  0
 14 39  1  0  0  0  0
 15 12  1  0  0  0  0
 15 40  1  0  0  0  0
 16 15  2  0  0  0  0
 16 41  1  0  0  0  0
 16 42  1  0  0  0  0
M  END
>  <MOL Chiral Flag>
0

>  <energy>
42.837896976136115

$$$$
