>623.sdf
 OpenBabel10062215583D

 35 37  0  0  0  0  0  0  0  0999 V2000
   -1.2927   -1.3234   -2.5721 C   0  0  0  0  0  0  0  0  0  0  0  0
   -1.6973   -0.5410   -1.3455 C   0  0  0  0  0  0  0  0  0  0  0  0
   -2.9312    0.0267   -1.3852 N   0  0  0  0  0  0  0  0  0  0  0  0
   -3.4234    0.7946   -0.3907 C   0  0  0  0  0  0  0  0  0  0  0  0
   -4.6869    1.3822   -0.5302 C   0  0  0  0  0  0  0  0  0  0  0  0
   -5.2078    2.1771    0.4917 C   0  0  0  0  0  0  0  0  0  0  0  0
   -4.4751    2.3785    1.6634 C   0  0  0  0  0  0  0  0  0  0  0  0
   -3.2147    1.7909    1.8138 C   0  0  0  0  0  0  0  0  0  0  0  0
   -2.6721    1.0016    0.7800 C   0  0  0  0  0  0  0  0  0  0  0  0
   -1.3939    0.4196    0.8913 C   0  0  0  0  0  0  0  0  0  0  0  0
   -0.7345    0.5664    2.0653 O   0  0  0  0  0  0  0  0  0  0  0  0
   -0.8570   -0.3300   -0.2048 C   0  0  0  0  0  0  0  0  0  0  0  0
    0.5618   -0.8382   -0.2334 C   0  0  0  0  0  0  0  0  0  0  0  0
    1.5924   -0.2190    0.3859 C   0  0  0  0  0  0  0  0  0  0  0  0
    3.0233   -0.6140    0.2323 C   0  0  0  0  0  0  0  0  0  0  0  0
    3.9747   -0.0168    1.0791 C   0  0  0  0  0  0  0  0  0  0  0  0
    5.3336   -0.3151    0.9446 C   0  0  0  0  0  0  0  0  0  0  0  0
    5.7617   -1.2009   -0.0449 C   0  0  0  0  0  0  0  0  0  0  0  0
    4.8315   -1.7981   -0.8964 C   0  0  0  0  0  0  0  0  0  0  0  0
    3.4691   -1.5157   -0.7610 C   0  0  0  0  0  0  0  0  0  0  0  0
   -1.3483   -0.6558   -3.4564 H   0  0  0  0  0  0  0  0  0  0  0  0
   -0.2868   -1.7672   -2.5804 H   0  0  0  0  0  0  0  0  0  0  0  0
   -2.0134   -2.1561   -2.7154 H   0  0  0  0  0  0  0  0  0  0  0  0
   -5.2613    1.2270   -1.4356 H   0  0  0  0  0  0  0  0  0  0  0  0
   -6.1808    2.6367    0.3760 H   0  0  0  0  0  0  0  0  0  0  0  0
   -4.8821    2.9944    2.4546 H   0  0  0  0  0  0  0  0  0  0  0  0
   -2.6633    1.9674    2.7291 H   0  0  0  0  0  0  0  0  0  0  0  0
   -0.0140   -0.0082    2.3510 H   0  0  0  0  0  0  0  0  0  0  0  0
    0.7881   -1.6816   -0.8531 H   0  0  0  0  0  0  0  0  0  0  0  0
    1.4117    0.6658    0.9795 H   0  0  0  0  0  0  0  0  0  0  0  0
    3.6624    0.6818    1.8462 H   0  0  0  0  0  0  0  0  0  0  0  0
    6.0562    0.1487    1.6034 H   0  0  0  0  0  0  0  0  0  0  0  0
    6.8155   -1.4203   -0.1562 H   0  0  0  0  0  0  0  0  0  0  0  0
    5.1668   -2.4754   -1.6714 H   0  0  0  0  0  0  0  0  0  0  0  0
    2.7879   -1.9827   -1.4544 H   0  0  0  0  0  0  0  0  0  0  0  0
  1 21  1  0  0  0  0
  1 22  1  0  0  0  0
  1 23  1  0  0  0  0
  2  1  1  0  0  0  0
  3  2  2  0  0  0  0
  4  3  1  0  0  0  0
  5  4  2  0  0  0  0
  5 24  1  0  0  0  0
  6  5  1  0  0  0  0
  6 25  1  0  0  0  0
  7  6  2  0  0  0  0
  7 26  1  0  0  0  0
  8  7  1  0  0  0  0
  8 27  1  0  0  0  0
  9  8  2  0  0  0  0
  9  4  1  0  0  0  0
 10  9  1  0  0  0  0
 11 10  1  0  0  0  0
 11 28  1  0  0  0  0
 12 10  2  0  0  0  0
 12  2  1  0  0  0  0
 13 12  1  0  0  0  0
 13 29  1  0  0  0  0
 14 13  2  0  0  0  0
 14 30  1  0  0  0  0
 15 14  1  0  0  0  0
 16 15  2  0  0  0  0
 16 31  1  0  0  0  0
 17 16  1  0  0  0  0
 17 32  1  0  0  0  0
 18 17  2  0  0  0  0
 18 33  1  0  0  0  0
 19 18  1  0  0  0  0
 19 34  1  0  0  0  0
 20 19  2  0  0  0  0
 20 15  1  0  0  0  0
 20 35  1  0  0  0  0
M  END
>  <MOL Chiral Flag>
0

>  <energy>
75.765631306349491

$$$$
