>633.sdf
 OpenBabel10062216043D

 56 56  0  0  0  0  0  0  0  0999 V2000
    4.4455   -1.6996    4.3391 C   0  0  0  0  0  0  0  0  0  0  0  0
    4.0821   -0.2892    4.8073 C   0  0  0  0  0  0  0  0  0  0  0  0
    3.1011    0.5347    3.9586 C   0  0  0  0  0  0  0  0  0  0  0  0
    2.9670    0.4124    2.6095 C   0  0  0  0  0  0  0  0  0  0  0  0
    1.9423    1.2489    1.8270 C   0  0  0  0  0  0  0  0  0  0  0  0
    1.0892    2.2108    2.6412 C   0  0  0  0  0  0  0  0  0  0  0  0
   -0.0161    3.0169    1.9848 C   0  0  0  0  0  0  0  0  0  0  0  0
   -0.4212    2.8408    0.5045 C   0  0  0  0  0  0  0  0  0  0  0  0
   -1.7425    3.6321    0.3625 C   0  0  0  0  0  0  0  0  0  0  0  0
   -2.5253    3.5534   -0.9538 C   0  0  0  0  0  0  0  0  0  0  0  0
   -3.9065    4.1867   -0.6721 C   0  0  0  0  0  0  0  0  0  0  0  0
   -4.8960    4.1568   -1.8341 C   0  0  0  0  0  0  0  0  0  0  0  0
   -6.2698    4.6463   -1.3219 C   0  0  0  0  0  0  0  0  0  0  0  0
   -7.3603    4.6483   -2.3995 C   0  0  0  0  0  0  0  0  0  0  0  0
   -7.1628    5.6807   -3.4772 C   0  0  0  0  0  0  0  0  0  0  0  0
   -6.2164    6.4560   -3.4332 O   0  0  0  0  0  0  0  0  0  0  0  0
   -8.0688    5.7493   -4.4864 O   0  0  0  0  0  0  0  0  0  0  0  0
   -8.0024    6.6350   -5.5446 C   0  0  0  0  0  0  0  0  0  0  0  0
    1.2685    2.3412    3.9860 C   0  0  0  0  0  0  0  0  0  0  0  0
    0.4383    3.2877    4.8482 C   0  0  0  0  0  0  0  0  0  0  0  0
    2.2789    1.5290    4.6847 C   0  0  0  0  0  0  0  0  0  0  0  0
    2.4220    1.6674    5.8910 O   0  0  0  0  0  0  0  0  0  0  0  0
    3.7652   -0.4660    1.9450 O   0  0  0  0  0  0  0  0  0  0  0  0
    3.7945   -0.6524    0.5803 C   0  0  0  0  0  0  0  0  0  0  0  0
    5.0819   -1.6907    3.4346 H   0  0  0  0  0  0  0  0  0  0  0  0
    5.0369   -2.1999    5.1359 H   0  0  0  0  0  0  0  0  0  0  0  0
    3.5233   -2.2950    4.1646 H   0  0  0  0  0  0  0  0  0  0  0  0
    3.5880   -0.4661    5.7883 H   0  0  0  0  0  0  0  0  0  0  0  0
    4.9912    0.3125    5.0177 H   0  0  0  0  0  0  0  0  0  0  0  0
    1.2597    0.5381    1.3169 H   0  0  0  0  0  0  0  0  0  0  0  0
    2.4802    1.8431    1.0581 H   0  0  0  0  0  0  0  0  0  0  0  0
   -0.9135    2.7160    2.5686 H   0  0  0  0  0  0  0  0  0  0  0  0
    0.1991    4.0974    2.1419 H   0  0  0  0  0  0  0  0  0  0  0  0
    0.3662    3.2140   -0.1862 H   0  0  0  0  0  0  0  0  0  0  0  0
   -0.6216    1.7690    0.2911 H   0  0  0  0  0  0  0  0  0  0  0  0
   -2.4257    3.2150    1.1354 H   0  0  0  0  0  0  0  0  0  0  0  0
   -1.5610    4.7047    0.6010 H   0  0  0  0  0  0  0  0  0  0  0  0
   -1.9853    4.0823   -1.7692 H   0  0  0  0  0  0  0  0  0  0  0  0
   -2.6724    2.4899   -1.2406 H   0  0  0  0  0  0  0  0  0  0  0  0
   -4.3721    3.6146    0.1623 H   0  0  0  0  0  0  0  0  0  0  0  0
   -3.7754    5.2418   -0.3418 H   0  0  0  0  0  0  0  0  0  0  0  0
   -5.0055    3.1150   -2.2059 H   0  0  0  0  0  0  0  0  0  0  0  0
   -4.5099    4.7930   -2.6568 H   0  0  0  0  0  0  0  0  0  0  0  0
   -6.1892    5.6631   -0.8768 H   0  0  0  0  0  0  0  0  0  0  0  0
   -6.6018    3.9516   -0.5175 H   0  0  0  0  0  0  0  0  0  0  0  0
   -8.3351    4.8650   -1.9102 H   0  0  0  0  0  0  0  0  0  0  0  0
   -7.4205    3.6370   -2.8553 H   0  0  0  0  0  0  0  0  0  0  0  0
   -7.9488    6.0595   -6.4911 H   0  0  0  0  0  0  0  0  0  0  0  0
   -7.1189    7.3067   -5.4922 H   0  0  0  0  0  0  0  0  0  0  0  0
   -8.9193    7.2589   -5.5539 H   0  0  0  0  0  0  0  0  0  0  0  0
    1.1151    3.9975    5.3659 H   0  0  0  0  0  0  0  0  0  0  0  0
   -0.3121    3.9045    4.3202 H   0  0  0  0  0  0  0  0  0  0  0  0
   -0.1136    2.6952    5.6076 H   0  0  0  0  0  0  0  0  0  0  0  0
    4.0874    0.2888    0.0694 H   0  0  0  0  0  0  0  0  0  0  0  0
    2.8077   -1.0039    0.2151 H   0  0  0  0  0  0  0  0  0  0  0  0
    4.5543   -1.4266    0.3447 H   0  0  0  0  0  0  0  0  0  0  0  0
  1 25  1  0  0  0  0
  1 26  1  0  0  0  0
  1 27  1  0  0  0  0
  2  1  1  0  0  0  0
  2 28  1  0  0  0  0
  2 29  1  0  0  0  0
  3  2  1  0  0  0  0
  4  3  2  0  0  0  0
  5  4  1  0  0  0  0
  5 30  1  0  0  0  0
  5 31  1  0  0  0  0
  6  5  1  0  0  0  0
  7  6  1  0  0  0  0
  7 32  1  0  0  0  0
  7 33  1  0  0  0  0
  8  7  1  0  0  0  0
  8 34  1  0  0  0  0
  8 35  1  0  0  0  0
  9  8  1  0  0  0  0
  9 36  1  0  0  0  0
  9 37  1  0  0  0  0
 10  9  1  0  0  0  0
 10 38  1  0  0  0  0
 10 39  1  0  0  0  0
 11 10  1  0  0  0  0
 11 40  1  0  0  0  0
 11 41  1  0  0  0  0
 12 11  1  0  0  0  0
 12 42  1  0  0  0  0
 12 43  1  0  0  0  0
 13 12  1  0  0  0  0
 13 44  1  0  0  0  0
 13 45  1  0  0  0  0
 14 13  1  0  0  0  0
 14 46  1  0  0  0  0
 14 47  1  0  0  0  0
 15 14  1  0  0  0  0
 16 15  2  0  0  0  0
 17 15  1  0  0  0  0
 18 17  1  0  0  0  0
 18 48  1  0  0  0  0
 18 49  1  0  0  0  0
 18 50  1  0  0  0  0
 19  6  2  0  0  0  0
 20 19  1  0  0  0  0
 20 51  1  0  0  0  0
 20 52  1  0  0  0  0
 20 53  1  0  0  0  0
 21 19  1  0  0  0  0
 21  3  1  0  0  0  0
 22 21  2  0  0  0  0
 23  4  1  0  0  0  0
 24 23  1  0  0  0  0
 24 54  1  0  0  0  0
 24 55  1  0  0  0  0
 24 56  1  0  0  0  0
M  END
>  <MOL Chiral Flag>
0

>  <energy>
31.448695025980399

$$$$
