>634.sdf
 OpenBabel10062216043D

 34 36  0  0  0  0  0  0  0  0999 V2000
   -5.3345    2.8262    0.1929 C   0  0  0  0  0  0  0  0  0  0  0  0
   -4.1478    2.0499   -0.2760 C   0  0  0  0  0  0  0  0  0  0  0  0
   -3.4337    2.3930   -1.3620 N   0  0  0  0  0  0  0  0  0  0  0  0
   -2.4585    1.5422   -1.4708 O   0  0  0  0  0  0  0  0  0  0  0  0
   -2.4985    0.6463   -0.5095 C   0  0  0  0  0  0  0  0  0  0  0  0
   -3.5842    0.9216    0.3048 C   0  0  0  0  0  0  0  0  0  0  0  0
   -1.4879   -0.3541   -0.3341 N   0  0  0  0  0  0  0  0  0  0  0  0
   -1.4050   -1.3245    0.7392 C   0  0  0  0  0  0  0  0  0  0  0  0
    0.0125   -1.9855    0.5120 C   0  0  0  0  0  0  0  0  0  0  0  0
    0.5527   -1.2238   -0.5998 N   0  0  0  0  0  0  0  0  0  0  0  0
    1.9672   -1.0774   -0.9505 C   0  0  0  0  0  0  0  0  0  0  0  0
    2.7860   -2.2262   -1.4962 C   0  0  0  0  0  0  0  0  0  0  0  0
    3.4811   -3.0780   -0.6198 C   0  0  0  0  0  0  0  0  0  0  0  0
    4.4712   -3.9408   -1.1113 C   0  0  0  0  0  0  0  0  0  0  0  0
    4.7744   -3.9605   -2.4770 C   0  0  0  0  0  0  0  0  0  0  0  0
    6.1980   -5.0572   -3.1298 Br  0  0  0  0  0  0  0  0  0  0  0  0
    4.0685   -3.1392   -3.3588 C   0  0  0  0  0  0  0  0  0  0  0  0
    3.0842   -2.2722   -2.8734 C   0  0  0  0  0  0  0  0  0  0  0  0
   -0.3630   -0.3599   -1.0552 C   0  0  0  0  0  0  0  0  0  0  0  0
   -0.1427    0.4368   -1.9544 O   0  0  0  0  0  0  0  0  0  0  0  0
   -5.1551    3.2175    1.2158 H   0  0  0  0  0  0  0  0  0  0  0  0
   -5.5057    3.6916   -0.4859 H   0  0  0  0  0  0  0  0  0  0  0  0
   -6.2379    2.1849    0.1856 H   0  0  0  0  0  0  0  0  0  0  0  0
   -3.9039    0.4096    1.2030 H   0  0  0  0  0  0  0  0  0  0  0  0
   -2.2363   -2.0614    0.6952 H   0  0  0  0  0  0  0  0  0  0  0  0
   -1.4202   -0.7876    1.7144 H   0  0  0  0  0  0  0  0  0  0  0  0
   -0.0744   -3.0584    0.2320 H   0  0  0  0  0  0  0  0  0  0  0  0
    0.6375   -1.8645    1.4229 H   0  0  0  0  0  0  0  0  0  0  0  0
    2.4984   -0.6864   -0.0591 H   0  0  0  0  0  0  0  0  0  0  0  0
    2.0871   -0.2511   -1.6820 H   0  0  0  0  0  0  0  0  0  0  0  0
    3.3069   -3.0255    0.4469 H   0  0  0  0  0  0  0  0  0  0  0  0
    5.0367   -4.5591   -0.4257 H   0  0  0  0  0  0  0  0  0  0  0  0
    4.3158   -3.1372   -4.4137 H   0  0  0  0  0  0  0  0  0  0  0  0
    2.5946   -1.5968   -3.5640 H   0  0  0  0  0  0  0  0  0  0  0  0
  1 21  1  0  0  0  0
  1 22  1  0  0  0  0
  1 23  1  0  0  0  0
  2  1  1  0  0  0  0
  3  2  2  0  0  0  0
  4  3  1  0  0  0  0
  5  4  1  0  0  0  0
  6  5  2  0  0  0  0
  6  2  1  0  0  0  0
  6 24  1  0  0  0  0
  7  5  1  0  0  0  0
  8  7  1  0  0  0  0
  8 25  1  0  0  0  0
  8 26  1  0  0  0  0
  9  8  1  0  0  0  0
  9 27  1  0  0  0  0
  9 28  1  0  0  0  0
 10  9  1  0  0  0  0
 11 10  1  0  0  0  0
 11 29  1  0  0  0  0
 11 30  1  0  0  0  0
 12 11  1  0  0  0  0
 13 12  2  0  0  0  0
 13 31  1  0  0  0  0
 14 13  1  0  0  0  0
 14 32  1  0  0  0  0
 15 14  2  0  0  0  0
 16 15  1  0  0  0  0
 17 15  1  0  0  0  0
 17 33  1  0  0  0  0
 18 17  2  0  0  0  0
 18 12  1  0  0  0  0
 18 34  1  0  0  0  0
 19 10  1  0  0  0  0
 19  7  1  0  0  0  0
 20 19  2  0  0  0  0
M  END
>  <MOL Chiral Flag>
0

>  <energy>
-11.229001775182354

$$$$
