>636.sdf
 OpenBabel10062216053D

 28 29  0  0  0  0  0  0  0  0999 V2000
   -1.0009   -3.2104    1.3385 Br  0  0  0  0  0  0  0  0  0  0  0  0
   -1.9070   -1.5701    1.7594 C   0  0  0  0  0  0  0  0  0  0  0  0
   -1.2889   -0.2991    1.7132 C   0  0  0  0  0  0  0  0  0  0  0  0
   -2.0678    0.8532    2.0072 C   0  0  0  0  0  0  0  0  0  0  0  0
   -3.4042    0.7322    2.3804 C   0  0  0  0  0  0  0  0  0  0  0  0
   -3.9891   -0.5266    2.4504 C   0  0  0  0  0  0  0  0  0  0  0  0
   -3.2513   -1.6635    2.1225 C   0  0  0  0  0  0  0  0  0  0  0  0
    0.1588   -0.0949    1.3278 C   0  0  2  0  0  0  0  0  0  0  0  0
    0.7202   -0.9331    0.2893 N   0  0  0  0  0  0  0  0  0  0  0  0
    2.0747   -0.9789   -0.1336 C   0  0  0  0  0  0  0  0  0  0  0  0
    3.1636   -0.5926    0.6766 C   0  0  0  0  0  0  0  0  0  0  0  0
    4.4655   -0.7969    0.2270 C   0  0  0  0  0  0  0  0  0  0  0  0
    4.6899   -1.3746   -1.0261 C   0  0  0  0  0  0  0  0  0  0  0  0
    3.6130   -1.6948   -1.8543 C   0  0  0  0  0  0  0  0  0  0  0  0
    2.3191   -1.4894   -1.4116 C   0  0  0  0  0  0  0  0  0  0  0  0
    0.9164    0.8580    2.1366 C   0  0  0  0  0  0  0  0  0  0  0  0
    1.4481    1.6216    2.8222 N   0  0  0  0  0  0  0  0  0  0  0  0
   -1.6338    1.8500    1.9526 H   0  0  0  0  0  0  0  0  0  0  0  0
   -3.9908    1.6123    2.6212 H   0  0  0  0  0  0  0  0  0  0  0  0
   -5.0197   -0.6261    2.7574 H   0  0  0  0  0  0  0  0  0  0  0  0
   -3.7240   -2.6303    2.1570 H   0  0  0  0  0  0  0  0  0  0  0  0
   -0.0353    0.6757    0.6145 H   0  0  0  0  0  0  0  0  0  0  0  0
    0.0348   -1.3186   -0.3823 H   0  0  0  0  0  0  0  0  0  0  0  0
    3.0434   -0.1832    1.6614 H   0  0  0  0  0  0  0  0  0  0  0  0
    5.2959   -0.5334    0.8694 H   0  0  0  0  0  0  0  0  0  0  0  0
    5.6952   -1.5780   -1.3537 H   0  0  0  0  0  0  0  0  0  0  0  0
    3.7652   -2.1280   -2.8311 H   0  0  0  0  0  0  0  0  0  0  0  0
    1.4865   -1.7495   -2.0557 H   0  0  0  0  0  0  0  0  0  0  0  0
  2  1  1  0  0  0  0
  3  2  2  0  0  0  0
  4  3  1  0  0  0  0
  4 18  1  0  0  0  0
  5  4  2  0  0  0  0
  5 19  1  0  0  0  0
  6  5  1  0  0  0  0
  6 20  1  0  0  0  0
  7  6  2  0  0  0  0
  7  2  1  0  0  0  0
  7 21  1  0  0  0  0
  8  3  1  0  0  0  0
  8 22  1  6  0  0  0
  9  8  1  0  0  0  0
  9 23  1  0  0  0  0
 10  9  1  0  0  0  0
 11 10  2  0  0  0  0
 11 24  1  0  0  0  0
 12 11  1  0  0  0  0
 12 25  1  0  0  0  0
 13 12  2  0  0  0  0
 13 26  1  0  0  0  0
 14 13  1  0  0  0  0
 14 27  1  0  0  0  0
 15 14  2  0  0  0  0
 15 10  1  0  0  0  0
 15 28  1  0  0  0  0
 16  8  1  0  0  0  0
 17 16  3  0  0  0  0
M  END
>  <MOL Chiral Flag>
0

>  <energy>
74.77088683275997

$$$$
