>640.sdf
 OpenBabel10062216073D

 37 39  0  0  0  0  0  0  0  0999 V2000
   -8.0744    0.4865   -0.7180 O   0  0  0  0  0  0  0  0  0  0  0  0
   -7.3733    1.4098    0.0687 C   0  0  0  0  0  0  0  0  0  0  0  0
   -5.8716    1.2862   -0.1950 C   0  0  0  0  0  0  0  0  0  0  0  0
   -5.3923   -0.0448    0.1201 N   0  0  0  0  0  0  0  0  0  0  0  0
   -4.0255   -0.3935   -0.0170 C   0  0  0  0  0  0  0  0  0  0  0  0
   -3.5491   -1.6460    0.2197 N   0  0  0  0  0  0  0  0  0  0  0  0
   -2.1843   -1.7047    0.0443 C   0  0  0  0  0  0  0  0  0  0  0  0
   -1.4209   -2.8498    0.2297 C   0  0  0  0  0  0  0  0  0  0  0  0
   -0.0303   -2.7710    0.0548 C   0  0  0  0  0  0  0  0  0  0  0  0
    0.6004   -1.5503   -0.3036 C   0  0  0  0  0  0  0  0  0  0  0  0
    2.0300   -1.5223   -0.3658 N   0  0  0  0  0  0  0  0  0  0  0  0
    2.8059   -0.3429   -0.5734 C   0  0  0  0  0  0  0  0  0  0  0  0
    3.8385    0.0238    0.3425 C   0  0  0  0  0  0  0  0  0  0  0  0
    4.6022    1.1769    0.0771 C   0  0  0  0  0  0  0  0  0  0  0  0
    4.3645    1.9474   -1.0601 C   0  0  0  0  0  0  0  0  0  0  0  0
    3.3604    1.5858   -1.9541 C   0  0  0  0  0  0  0  0  0  0  0  0
    2.5843    0.4509   -1.7153 C   0  0  0  0  0  0  0  0  0  0  0  0
    4.1172   -0.7302    1.6077 C   0  0  0  0  0  0  0  0  0  0  0  0
    5.1193   -0.3362    2.4179 O   0  0  0  0  0  0  0  0  0  0  0  0
    3.4209   -1.6687    1.9560 O   0  0  0  0  0  0  0  0  0  0  0  0
   -0.1981   -0.3925   -0.5013 C   0  0  0  0  0  0  0  0  0  0  0  0
   -1.5729   -0.5066   -0.3237 C   0  0  0  0  0  0  0  0  0  0  0  0
   -2.7727    0.6226   -0.4382 S   0  0  0  0  0  0  0  0  0  0  0  0
   -9.0232    0.5472   -0.4333 H   0  0  0  0  0  0  0  0  0  0  0  0
   -7.6983    2.4414   -0.1899 H   0  0  0  0  0  0  0  0  0  0  0  0
   -7.5644    1.2166    1.1489 H   0  0  0  0  0  0  0  0  0  0  0  0
   -5.6678    1.5056   -1.2657 H   0  0  0  0  0  0  0  0  0  0  0  0
   -5.3384    2.0323    0.4331 H   0  0  0  0  0  0  0  0  0  0  0  0
   -6.0512   -0.7659    0.4516 H   0  0  0  0  0  0  0  0  0  0  0  0
   -1.8857   -3.7824    0.5222 H   0  0  0  0  0  0  0  0  0  0  0  0
    0.5675   -3.6579    0.2234 H   0  0  0  0  0  0  0  0  0  0  0  0
    2.5227   -2.3676   -0.0456 H   0  0  0  0  0  0  0  0  0  0  0  0
    5.3824    1.4895    0.7596 H   0  0  0  0  0  0  0  0  0  0  0  0
    4.9624    2.8305   -1.2459 H   0  0  0  0  0  0  0  0  0  0  0  0
    3.1868    2.1852   -2.8386 H   0  0  0  0  0  0  0  0  0  0  0  0
    1.8223    0.1754   -2.4336 H   0  0  0  0  0  0  0  0  0  0  0  0
    0.2212    0.5692   -0.7498 H   0  0  0  0  0  0  0  0  0  0  0  0
  1 24  1  0  0  0  0
  2  1  1  0  0  0  0
  2 25  1  0  0  0  0
  2 26  1  0  0  0  0
  3  2  1  0  0  0  0
  3 27  1  0  0  0  0
  3 28  1  0  0  0  0
  4  3  1  0  0  0  0
  4 29  1  0  0  0  0
  5  4  1  0  0  0  0
  6  5  2  0  0  0  0
  7  6  1  0  0  0  0
  8  7  2  0  0  0  0
  8 30  1  0  0  0  0
  9  8  1  0  0  0  0
  9 31  1  0  0  0  0
 10  9  2  0  0  0  0
 11 10  1  0  0  0  0
 11 32  1  0  0  0  0
 12 11  1  0  0  0  0
 13 12  2  0  0  0  0
 14 13  1  0  0  0  0
 14 33  1  0  0  0  0
 15 14  2  0  0  0  0
 15 34  1  0  0  0  0
 16 15  1  0  0  0  0
 16 35  1  0  0  0  0
 17 16  2  0  0  0  0
 17 12  1  0  0  0  0
 17 36  1  0  0  0  0
 18 13  1  0  0  0  0
 19 18  1  0  0  0  0
 20 18  2  0  0  0  0
 21 10  1  0  0  0  0
 21 37  1  0  0  0  0
 22 21  2  0  0  0  0
 22  7  1  0  0  0  0
 23 22  1  0  0  0  0
 23  5  1  0  0  0  0
M  END
>  <MOL Chiral Flag>
0

>  <energy>
39.201399349200571

$$$$
