>647.sdf
 OpenBabel10062216143D

 46 50  0  0  0  0  0  0  0  0999 V2000
   -4.0015    0.1302   -1.2247 N   0  0  0  0  0  0  0  0  0  0  0  0
   -3.3932    1.2460   -0.5886 C   0  0  0  0  0  0  0  0  0  0  0  0
   -4.2027    2.1108    0.1687 C   0  0  0  0  0  0  0  0  0  0  0  0
   -3.6627    3.2471    0.7714 C   0  0  0  0  0  0  0  0  0  0  0  0
   -2.3100    3.5397    0.6245 C   0  0  0  0  0  0  0  0  0  0  0  0
   -1.4875    2.6932   -0.1152 C   0  0  0  0  0  0  0  0  0  0  0  0
   -2.0035    1.5320   -0.7227 C   0  0  0  0  0  0  0  0  0  0  0  0
   -1.0350    0.6509   -1.4876 C   0  0  0  0  0  0  0  0  0  0  0  0
   -0.7422   -0.6507   -0.7692 C   0  0  0  0  0  0  0  0  0  0  0  0
   -1.6982   -1.6227   -0.7535 N   0  0  0  0  0  0  0  0  0  0  0  0
   -1.4977   -2.8389   -0.1816 C   0  0  0  0  0  0  0  0  0  0  0  0
   -2.5089   -3.8071   -0.2089 C   0  0  0  0  0  0  0  0  0  0  0  0
   -2.2931   -5.0602    0.3761 C   0  0  0  0  0  0  0  0  0  0  0  0
   -1.0702   -5.3477    0.9916 C   0  0  0  0  0  0  0  0  0  0  0  0
   -0.0566   -4.3856    1.0220 C   0  0  0  0  0  0  0  0  0  0  0  0
   -0.2662   -3.1307    0.4322 C   0  0  0  0  0  0  0  0  0  0  0  0
    0.7317   -2.1581    0.4411 C   0  0  0  0  0  0  0  0  0  0  0  0
    0.5121   -0.9114   -0.1556 C   0  0  0  0  0  0  0  0  0  0  0  0
    1.6180    0.0613   -0.0809 C   0  0  0  0  0  0  0  0  0  0  0  0
    1.7704    1.0472    0.8934 C   0  0  0  0  0  0  0  0  0  0  0  0
    3.0225    1.5866    0.6731 C   0  0  0  0  0  0  0  0  0  0  0  0
    3.7352    2.5661    1.3658 C   0  0  0  0  0  0  0  0  0  0  0  0
    5.0359    2.8764    0.9198 C   0  0  0  0  0  0  0  0  0  0  0  0
    5.5837    2.2128   -0.2029 C   0  0  0  0  0  0  0  0  0  0  0  0
    4.8373    1.2307   -0.8808 C   0  0  0  0  0  0  0  0  0  0  0  0
    3.5609    0.9400   -0.4077 C   0  0  0  0  0  0  0  0  0  0  0  0
    2.7119    0.0074   -0.8729 N   0  0  0  0  0  0  0  0  0  0  0  0
   -5.0076   -0.0542   -1.0944 H   0  0  0  0  0  0  0  0  0  0  0  0
   -3.4879   -0.4605   -1.8889 H   0  0  0  0  0  0  0  0  0  0  0  0
   -5.2605    1.9074    0.2810 H   0  0  0  0  0  0  0  0  0  0  0  0
   -4.2971    3.9077    1.3477 H   0  0  0  0  0  0  0  0  0  0  0  0
   -1.8933    4.4244    1.0876 H   0  0  0  0  0  0  0  0  0  0  0  0
   -0.4367    2.9391   -0.2073 H   0  0  0  0  0  0  0  0  0  0  0  0
   -0.0810    1.2020   -1.6123 H   0  0  0  0  0  0  0  0  0  0  0  0
   -1.3897    0.4642   -2.5244 H   0  0  0  0  0  0  0  0  0  0  0  0
   -3.4576   -3.5923   -0.6847 H   0  0  0  0  0  0  0  0  0  0  0  0
   -3.0734   -5.8096    0.3522 H   0  0  0  0  0  0  0  0  0  0  0  0
   -0.9064   -6.3173    1.4437 H   0  0  0  0  0  0  0  0  0  0  0  0
    0.8876   -4.6192    1.4998 H   0  0  0  0  0  0  0  0  0  0  0  0
    1.6843   -2.3651    0.9170 H   0  0  0  0  0  0  0  0  0  0  0  0
    1.0825    1.2980    1.6908 H   0  0  0  0  0  0  0  0  0  0  0  0
    3.3135    3.0609    2.2313 H   0  0  0  0  0  0  0  0  0  0  0  0
    5.6234    3.6205    1.4428 H   0  0  0  0  0  0  0  0  0  0  0  0
    6.5851    2.4525   -0.5365 H   0  0  0  0  0  0  0  0  0  0  0  0
    5.2501    0.7070   -1.7329 H   0  0  0  0  0  0  0  0  0  0  0  0
    2.8798   -0.6527   -1.6636 H   0  0  0  0  0  0  0  0  0  0  0  0
  1 28  1  0  0  0  0
  1 29  1  0  0  0  0
  2  1  1  0  0  0  0
  3  2  2  0  0  0  0
  3 30  1  0  0  0  0
  4  3  1  0  0  0  0
  4 31  1  0  0  0  0
  5  4  2  0  0  0  0
  5 32  1  0  0  0  0
  6  5  1  0  0  0  0
  6 33  1  0  0  0  0
  7  6  2  0  0  0  0
  7  2  1  0  0  0  0
  8  7  1  0  0  0  0
  8 34  1  0  0  0  0
  8 35  1  0  0  0  0
  9  8  1  0  0  0  0
 10  9  2  0  0  0  0
 11 10  1  0  0  0  0
 12 11  2  0  0  0  0
 12 36  1  0  0  0  0
 13 12  1  0  0  0  0
 13 37  1  0  0  0  0
 14 13  2  0  0  0  0
 14 38  1  0  0  0  0
 15 14  1  0  0  0  0
 15 39  1  0  0  0  0
 16 15  2  0  0  0  0
 16 11  1  0  0  0  0
 17 16  1  0  0  0  0
 17 40  1  0  0  0  0
 18 17  2  0  0  0  0
 18  9  1  0  0  0  0
 19 18  1  0  0  0  0
 20 19  2  0  0  0  0
 20 41  1  0  0  0  0
 21 20  1  0  0  0  0
 22 21  2  0  0  0  0
 22 42  1  0  0  0  0
 23 22  1  0  0  0  0
 23 43  1  0  0  0  0
 24 23  2  0  0  0  0
 24 44  1  0  0  0  0
 25 24  1  0  0  0  0
 25 45  1  0  0  0  0
 26 25  2  0  0  0  0
 26 21  1  0  0  0  0
 27 26  1  0  0  0  0
 27 19  1  0  0  0  0
 27 46  1  0  0  0  0
M  END
>  <MOL Chiral Flag>
0

>  <energy>
85.851282330243805

$$$$
