>648.sdf
 OpenBabel10062216153D

 34 35  0  0  0  0  0  0  0  0999 V2000
    6.1156    0.8939    0.6444 C   0  0  0  0  0  0  0  0  0  0  0  0
    5.4047    1.1058   -0.5196 O   0  0  0  0  0  0  0  0  0  0  0  0
    4.0574    0.9746   -0.6529 C   0  0  0  0  0  0  0  0  0  0  0  0
    3.4865    1.2268   -1.8958 C   0  0  0  0  0  0  0  0  0  0  0  0
    2.1043    1.1087   -2.0968 C   0  0  0  0  0  0  0  0  0  0  0  0
    1.6022    1.3585   -3.3262 O   0  0  0  0  0  0  0  0  0  0  0  0
    1.2466    0.7201   -1.0275 C   0  0  0  0  0  0  0  0  0  0  0  0
   -0.2465    0.6014   -1.2844 C   0  0  0  0  0  0  0  0  0  0  0  0
   -0.6966    1.0597   -2.3255 O   0  0  0  0  0  0  0  0  0  0  0  0
   -1.2079   -0.0767   -0.3571 C   0  0  0  0  0  0  0  0  0  0  0  0
   -2.5363   -0.0797   -0.6046 C   0  0  0  0  0  0  0  0  0  0  0  0
   -3.5593   -0.7448    0.2580 C   0  0  0  0  0  0  0  0  0  0  0  0
   -3.2365   -1.4506    1.4401 C   0  0  0  0  0  0  0  0  0  0  0  0
   -4.2453   -2.0504    2.2013 C   0  0  0  0  0  0  0  0  0  0  0  0
   -5.5788   -1.9574    1.8011 C   0  0  0  0  0  0  0  0  0  0  0  0
   -5.9104   -1.2637    0.6371 C   0  0  0  0  0  0  0  0  0  0  0  0
   -4.9094   -0.6612   -0.1302 C   0  0  0  0  0  0  0  0  0  0  0  0
    1.8412    0.4748    0.2458 C   0  0  0  0  0  0  0  0  0  0  0  0
    1.0943    0.1454    1.3170 O   0  0  0  0  0  0  0  0  0  0  0  0
    3.2294    0.6009    0.4156 C   0  0  0  0  0  0  0  0  0  0  0  0
    7.1922    1.0756    0.4484 H   0  0  0  0  0  0  0  0  0  0  0  0
    5.9921   -0.1562    0.9854 H   0  0  0  0  0  0  0  0  0  0  0  0
    5.7783    1.5972    1.4354 H   0  0  0  0  0  0  0  0  0  0  0  0
    4.1257    1.5181   -2.7207 H   0  0  0  0  0  0  0  0  0  0  0  0
    2.1652    1.6200   -4.0691 H   0  0  0  0  0  0  0  0  0  0  0  0
   -0.8440   -0.5918    0.5056 H   0  0  0  0  0  0  0  0  0  0  0  0
   -2.9009    0.4355   -1.4893 H   0  0  0  0  0  0  0  0  0  0  0  0
   -2.2207   -1.5480    1.7875 H   0  0  0  0  0  0  0  0  0  0  0  0
   -3.9909   -2.5893    3.1051 H   0  0  0  0  0  0  0  0  0  0  0  0
   -6.3556   -2.4232    2.3936 H   0  0  0  0  0  0  0  0  0  0  0  0
   -6.9451   -1.1920    0.3275 H   0  0  0  0  0  0  0  0  0  0  0  0
   -5.1878   -0.1272   -1.0307 H   0  0  0  0  0  0  0  0  0  0  0  0
    1.4822   -0.0156    2.1893 H   0  0  0  0  0  0  0  0  0  0  0  0
    3.6542    0.4107    1.3923 H   0  0  0  0  0  0  0  0  0  0  0  0
  1 21  1  0  0  0  0
  1 22  1  0  0  0  0
  1 23  1  0  0  0  0
  2  1  1  0  0  0  0
  3  2  1  0  0  0  0
  4  3  2  0  0  0  0
  4 24  1  0  0  0  0
  5  4  1  0  0  0  0
  6  5  1  0  0  0  0
  6 25  1  0  0  0  0
  7  5  2  0  0  0  0
  8  7  1  0  0  0  0
  9  8  2  0  0  0  0
 10  8  1  0  0  0  0
 10 26  1  0  0  0  0
 11 10  2  0  0  0  0
 11 27  1  0  0  0  0
 12 11  1  0  0  0  0
 13 12  2  0  0  0  0
 13 28  1  0  0  0  0
 14 13  1  0  0  0  0
 14 29  1  0  0  0  0
 15 14  2  0  0  0  0
 15 30  1  0  0  0  0
 16 15  1  0  0  0  0
 16 31  1  0  0  0  0
 17 16  2  0  0  0  0
 17 12  1  0  0  0  0
 17 32  1  0  0  0  0
 18  7  1  0  0  0  0
 19 18  1  0  0  0  0
 19 33  1  0  0  0  0
 20 18  2  0  0  0  0
 20  3  1  0  0  0  0
 20 34  1  0  0  0  0
M  END
>  <MOL Chiral Flag>
0

>  <energy>
77.093004338225469

$$$$
