>65.sdf
 OpenBabel10052218173D

 47 50  0  0  0  0  0  0  0  0999 V2000
   -2.0990   -0.2247    1.5441 C   0  0  0  0  0  0  0  0  0  0  0  0
   -3.2083    0.0104    0.7578 O   0  0  0  0  0  0  0  0  0  0  0  0
   -3.4503   -0.6849   -0.3778 C   0  0  0  0  0  0  0  0  0  0  0  0
   -3.7285    0.0231   -1.5512 C   0  0  0  0  0  0  0  0  0  0  0  0
   -3.9208   -0.6583   -2.7549 C   0  0  0  0  0  0  0  0  0  0  0  0
   -3.8536   -2.0542   -2.7873 C   0  0  0  0  0  0  0  0  0  0  0  0
   -3.5951   -2.7704   -1.6143 C   0  0  0  0  0  0  0  0  0  0  0  0
   -3.3887   -2.0905   -0.4101 C   0  0  0  0  0  0  0  0  0  0  0  0
   -1.2372    0.9850    1.4393 C   0  0  0  0  0  0  0  0  0  0  0  0
   -0.1844    1.1561    0.5746 C   0  0  0  0  0  0  0  0  0  0  0  0
    0.2431    2.4246    0.7232 N   0  0  0  0  0  0  0  0  0  0  0  0
   -0.5527    3.0081    1.6142 N   0  0  0  0  0  0  0  0  0  0  0  0
   -1.4606    2.1534    2.0622 N   0  0  0  0  0  0  0  0  0  0  0  0
    1.2573    3.1567   -0.0140 C   0  0  0  0  0  0  0  0  0  0  0  0
    2.4151    2.5728   -0.6540 C   0  0  0  0  0  0  0  0  0  0  0  0
    2.8711    1.1485   -0.5896 C   0  0  0  0  0  0  0  0  0  0  0  0
    2.4141    0.2801    0.2396 N   0  0  0  0  0  0  0  0  0  0  0  0
    2.8442   -1.0303    0.1949 N   0  0  0  0  0  0  0  0  0  0  0  0
    2.1577   -2.0511    0.9100 C   0  0  0  0  0  0  0  0  0  0  0  0
    2.3954   -3.3983    0.5890 C   0  0  0  0  0  0  0  0  0  0  0  0
    1.6987   -4.4156    1.2474 C   0  0  0  0  0  0  0  0  0  0  0  0
    0.7668   -4.0980    2.2380 C   0  0  0  0  0  0  0  0  0  0  0  0
    0.5328   -2.7623    2.5746 C   0  0  0  0  0  0  0  0  0  0  0  0
    1.2229   -1.7400    1.9142 C   0  0  0  0  0  0  0  0  0  0  0  0
    3.2539    3.4170   -1.4143 C   0  0  0  0  0  0  0  0  0  0  0  0
    3.0027    4.7790   -1.5373 C   0  0  0  0  0  0  0  0  0  0  0  0
    1.9110    5.3444   -0.9003 C   0  0  0  0  0  0  0  0  0  0  0  0
    1.0538    4.5494   -0.1477 C   0  0  0  0  0  0  0  0  0  0  0  0
   -1.5127   -1.0890    1.1608 H   0  0  0  0  0  0  0  0  0  0  0  0
   -2.3778   -0.4390    2.5972 H   0  0  0  0  0  0  0  0  0  0  0  0
   -3.7651    1.1054   -1.5325 H   0  0  0  0  0  0  0  0  0  0  0  0
   -4.1129   -0.1028   -3.6633 H   0  0  0  0  0  0  0  0  0  0  0  0
   -3.9992   -2.5798   -3.7215 H   0  0  0  0  0  0  0  0  0  0  0  0
   -3.5460   -3.8512   -1.6401 H   0  0  0  0  0  0  0  0  0  0  0  0
   -3.1809   -2.6530    0.4918 H   0  0  0  0  0  0  0  0  0  0  0  0
    0.1581    0.4282   -0.1406 H   0  0  0  0  0  0  0  0  0  0  0  0
    3.6633    0.8454   -1.2717 H   0  0  0  0  0  0  0  0  0  0  0  0
    3.5543   -1.3101   -0.5011 H   0  0  0  0  0  0  0  0  0  0  0  0
    3.1071   -3.6569   -0.1852 H   0  0  0  0  0  0  0  0  0  0  0  0
    1.8775   -5.4503    0.9845 H   0  0  0  0  0  0  0  0  0  0  0  0
    0.2258   -4.8871    2.7441 H   0  0  0  0  0  0  0  0  0  0  0  0
   -0.1879   -2.5181    3.3443 H   0  0  0  0  0  0  0  0  0  0  0  0
    1.0285   -0.7134    2.1879 H   0  0  0  0  0  0  0  0  0  0  0  0
    4.1284    3.0142   -1.9121 H   0  0  0  0  0  0  0  0  0  0  0  0
    3.6652    5.3999   -2.1265 H   0  0  0  0  0  0  0  0  0  0  0  0
    1.7178    6.4049   -0.9992 H   0  0  0  0  0  0  0  0  0  0  0  0
    0.1954    5.0222    0.3121 H   0  0  0  0  0  0  0  0  0  0  0  0
  1 29  1  0  0  0  0
  1 30  1  0  0  0  0
  2  1  1  0  0  0  0
  3  2  1  0  0  0  0
  4  3  2  0  0  0  0
  4 31  1  0  0  0  0
  5  4  1  0  0  0  0
  5 32  1  0  0  0  0
  6  5  2  0  0  0  0
  6 33  1  0  0  0  0
  7  6  1  0  0  0  0
  7 34  1  0  0  0  0
  8  7  2  0  0  0  0
  8  3  1  0  0  0  0
  8 35  1  0  0  0  0
  9  1  1  0  0  0  0
 10  9  2  0  0  0  0
 10 36  1  0  0  0  0
 11 10  1  0  0  0  0
 12 11  1  0  0  0  0
 13 12  2  0  0  0  0
 13  9  1  0  0  0  0
 14 11  1  0  0  0  0
 15 14  2  0  0  0  0
 16 15  1  0  0  0  0
 16 37  1  0  0  0  0
 17 16  2  0  0  0  0
 18 17  1  0  0  0  0
 18 38  1  0  0  0  0
 19 18  1  0  0  0  0
 20 19  2  0  0  0  0
 20 39  1  0  0  0  0
 21 20  1  0  0  0  0
 21 40  1  0  0  0  0
 22 21  2  0  0  0  0
 22 41  1  0  0  0  0
 23 22  1  0  0  0  0
 23 42  1  0  0  0  0
 24 23  2  0  0  0  0
 24 19  1  0  0  0  0
 24 43  1  0  0  0  0
 25 15  1  0  0  0  0
 25 44  1  0  0  0  0
 26 25  2  0  0  0  0
 26 45  1  0  0  0  0
 27 26  1  0  0  0  0
 27 46  1  0  0  0  0
 28 27  2  0  0  0  0
 28 14  1  0  0  0  0
 28 47  1  0  0  0  0
M  END
>  <MOL Chiral Flag>
0

>  <energy>
114.5228921774487

$$$$
