>650.sdf
 OpenBabel10062216173D

 44 46  0  0  0  0  0  0  0  0999 V2000
   -4.1480   -0.6423    1.2089 N   0  0  0  0  0  0  0  0  0  0  0  0
   -3.0490   -1.7285    0.3563 S   0  0  0  0  0  0  0  0  0  0  0  0
   -3.5724   -3.1117    0.7762 O   0  0  0  0  0  0  0  0  0  0  0  0
   -3.4865   -1.7149   -1.1144 O   0  0  0  0  0  0  0  0  0  0  0  0
   -1.2550   -1.6320    0.6399 C   0  0  0  0  0  0  0  0  0  0  0  0
   -0.4426   -0.5375    0.2044 C   0  0  0  0  0  0  0  0  0  0  0  0
   -1.0492    0.5501   -0.4915 N   0  0  0  0  0  0  0  0  0  0  0  0
   -1.3433    0.5170   -1.9093 C   0  0  0  0  0  0  0  0  0  0  0  0
   -2.3188    1.6851   -2.0845 C   0  0  0  0  0  0  0  0  0  0  0  0
   -1.8857    2.6469   -0.9901 C   0  0  0  0  0  0  0  0  0  0  0  0
   -1.6287    1.6925    0.1784 C   0  0  0  0  0  0  0  0  0  0  0  0
    0.9790   -0.5630    0.4836 C   0  0  0  0  0  0  0  0  0  0  0  0
    1.4926   -1.6760    1.1920 C   0  0  0  0  0  0  0  0  0  0  0  0
    0.6838   -2.7347    1.6041 C   0  0  0  0  0  0  0  0  0  0  0  0
   -0.6756   -2.7033    1.3247 C   0  0  0  0  0  0  0  0  0  0  0  0
    1.2590   -3.9213    2.3441 C   0  0  0  0  0  0  0  0  0  0  0  0
    0.6417   -4.0412    3.5757 F   0  0  0  0  0  0  0  0  0  0  0  0
    2.6232   -3.7996    2.5488 F   0  0  0  0  0  0  0  0  0  0  0  0
    1.0302   -5.0723    1.6117 F   0  0  0  0  0  0  0  0  0  0  0  0
    1.9214    0.4727    0.0726 N   0  0  0  0  0  0  0  0  0  0  0  0
    3.3491    0.3671    0.3254 C   0  0  0  0  0  0  0  0  0  0  0  0
    3.9523    1.4256   -0.5911 C   0  0  0  0  0  0  0  0  0  0  0  0
    2.8966    2.4998   -0.5538 C   0  0  0  0  0  0  0  0  0  0  0  0
    1.6133    1.6811   -0.6589 C   0  0  0  0  0  0  0  0  0  0  0  0
   -4.4380    0.1206    0.5578 H   0  0  0  0  0  0  0  0  0  0  0  0
   -3.6378   -0.2323    2.0224 H   0  0  0  0  0  0  0  0  0  0  0  0
   -1.8146   -0.4226   -2.2530 H   0  0  0  0  0  0  0  0  0  0  0  0
   -0.4134    0.6630   -2.4840 H   0  0  0  0  0  0  0  0  0  0  0  0
   -2.3541    2.1059   -3.1123 H   0  0  0  0  0  0  0  0  0  0  0  0
   -3.3381    1.3362   -1.8054 H   0  0  0  0  0  0  0  0  0  0  0  0
   -2.5910    3.4747   -0.7673 H   0  0  0  0  0  0  0  0  0  0  0  0
   -0.9210    3.0942   -1.3163 H   0  0  0  0  0  0  0  0  0  0  0  0
   -0.9712    2.1567    0.9416 H   0  0  0  0  0  0  0  0  0  0  0  0
   -2.5700    1.3918    0.6685 H   0  0  0  0  0  0  0  0  0  0  0  0
    2.5415   -1.7306    1.4288 H   0  0  0  0  0  0  0  0  0  0  0  0
   -1.2916   -3.5317    1.6510 H   0  0  0  0  0  0  0  0  0  0  0  0
    3.7864   -0.6092    0.0265 H   0  0  0  0  0  0  0  0  0  0  0  0
    3.5323    0.5808    1.4017 H   0  0  0  0  0  0  0  0  0  0  0  0
    4.9793    1.7455   -0.3158 H   0  0  0  0  0  0  0  0  0  0  0  0
    3.9686    1.0225   -1.6303 H   0  0  0  0  0  0  0  0  0  0  0  0
    2.9403    2.9650    0.4582 H   0  0  0  0  0  0  0  0  0  0  0  0
    2.9941    3.2997   -1.3185 H   0  0  0  0  0  0  0  0  0  0  0  0
    1.4100    1.4219   -1.7133 H   0  0  0  0  0  0  0  0  0  0  0  0
    0.8365    2.2972   -0.1993 H   0  0  0  0  0  0  0  0  0  0  0  0
  1 25  1  0  0  0  0
  1 26  1  0  0  0  0
  2  1  1  0  0  0  0
  3  2  2  0  0  0  0
  4  2  2  0  0  0  0
  5  2  1  0  0  0  0
  6  5  2  0  0  0  0
  7  6  1  0  0  0  0
  8  7  1  0  0  0  0
  8 27  1  0  0  0  0
  8 28  1  0  0  0  0
  9  8  1  0  0  0  0
  9 29  1  0  0  0  0
  9 30  1  0  0  0  0
 10  9  1  0  0  0  0
 10 31  1  0  0  0  0
 10 32  1  0  0  0  0
 11 10  1  0  0  0  0
 11  7  1  0  0  0  0
 11 33  1  0  0  0  0
 11 34  1  0  0  0  0
 12  6  1  0  0  0  0
 13 12  2  0  0  0  0
 13 35  1  0  0  0  0
 14 13  1  0  0  0  0
 15 14  2  0  0  0  0
 15  5  1  0  0  0  0
 15 36  1  0  0  0  0
 16 14  1  0  0  0  0
 17 16  1  0  0  0  0
 18 16  1  0  0  0  0
 19 16  1  0  0  0  0
 20 12  1  0  0  0  0
 21 20  1  0  0  0  0
 21 37  1  0  0  0  0
 21 38  1  0  0  0  0
 22 21  1  0  0  0  0
 22 39  1  0  0  0  0
 22 40  1  0  0  0  0
 23 22  1  0  0  0  0
 23 41  1  0  0  0  0
 23 42  1  0  0  0  0
 24 23  1  0  0  0  0
 24 20  1  0  0  0  0
 24 43  1  0  0  0  0
 24 44  1  0  0  0  0
M  END
>  <MOL Chiral Flag>
0

>  <energy>
27.390857727380165

$$$$
