>655.sdf
 OpenBabel10062216203D

 41 44  0  0  0  0  0  0  0  0999 V2000
    5.4224    1.4833   -2.0344 N   0  0  0  0  0  0  0  0  0  0  0  0
    4.3397    0.9624   -1.2835 C   0  0  0  0  0  0  0  0  0  0  0  0
    4.5753    0.3082   -0.0676 C   0  0  0  0  0  0  0  0  0  0  0  0
    3.5083   -0.2088    0.6724 C   0  0  0  0  0  0  0  0  0  0  0  0
    2.1872   -0.0721    0.2148 C   0  0  0  0  0  0  0  0  0  0  0  0
    1.1209   -0.6337    0.9896 N   0  0  0  0  0  0  0  0  0  0  0  0
   -0.2718   -0.4624    0.6923 C   0  0  0  0  0  0  0  0  0  0  0  0
   -1.1097   -1.6029    0.5701 C   0  0  0  0  0  0  0  0  0  0  0  0
   -0.6137   -2.9183    0.7109 C   0  0  0  0  0  0  0  0  0  0  0  0
   -1.4659   -4.0166    0.5686 C   0  0  0  0  0  0  0  0  0  0  0  0
   -2.8219   -3.8296    0.2789 C   0  0  0  0  0  0  0  0  0  0  0  0
   -3.6800   -4.9477    0.1335 N   0  0  0  0  0  0  0  0  0  0  0  0
   -3.3246   -2.5321    0.1282 C   0  0  0  0  0  0  0  0  0  0  0  0
   -2.4808   -1.4243    0.2695 C   0  0  0  0  0  0  0  0  0  0  0  0
   -2.9903   -0.1789    0.1093 N   0  0  0  0  0  0  0  0  0  0  0  0
   -2.2318    0.9364    0.2431 C   0  0  0  0  0  0  0  0  0  0  0  0
   -2.8329    2.1916    0.0942 C   0  0  0  0  0  0  0  0  0  0  0  0
   -2.0830    3.3610    0.2600 C   0  0  0  0  0  0  0  0  0  0  0  0
   -2.6978    4.6290    0.1116 N   0  0  0  0  0  0  0  0  0  0  0  0
   -0.7261    3.2709    0.5866 C   0  0  0  0  0  0  0  0  0  0  0  0
   -0.1146    2.0236    0.7354 C   0  0  0  0  0  0  0  0  0  0  0  0
   -0.8523    0.8326    0.5479 C   0  0  0  0  0  0  0  0  0  0  0  0
    1.9579    0.5766   -1.0180 C   0  0  0  0  0  0  0  0  0  0  0  0
    3.0274    1.0918   -1.7559 C   0  0  0  0  0  0  0  0  0  0  0  0
    5.2551    1.9626   -2.9313 H   0  0  0  0  0  0  0  0  0  0  0  0
    6.3902    1.3879   -1.6933 H   0  0  0  0  0  0  0  0  0  0  0  0
    5.5860    0.1970    0.3047 H   0  0  0  0  0  0  0  0  0  0  0  0
    3.7094   -0.7145    1.6086 H   0  0  0  0  0  0  0  0  0  0  0  0
    1.3817   -1.3314    1.7015 H   0  0  0  0  0  0  0  0  0  0  0  0
    0.4269   -3.1127    0.9235 H   0  0  0  0  0  0  0  0  0  0  0  0
   -1.0673   -5.0173    0.6809 H   0  0  0  0  0  0  0  0  0  0  0  0
   -3.3150   -5.9055    0.2410 H   0  0  0  0  0  0  0  0  0  0  0  0
   -4.6792   -4.8167   -0.0823 H   0  0  0  0  0  0  0  0  0  0  0  0
   -4.3731   -2.3829   -0.1013 H   0  0  0  0  0  0  0  0  0  0  0  0
   -3.8883    2.2569   -0.1432 H   0  0  0  0  0  0  0  0  0  0  0  0
   -3.6984    4.7017   -0.1242 H   0  0  0  0  0  0  0  0  0  0  0  0
   -2.1516    5.4938    0.2375 H   0  0  0  0  0  0  0  0  0  0  0  0
   -0.1411    4.1708    0.7309 H   0  0  0  0  0  0  0  0  0  0  0  0
    0.9291    2.0051    1.0069 H   0  0  0  0  0  0  0  0  0  0  0  0
    0.9593    0.6775   -1.4185 H   0  0  0  0  0  0  0  0  0  0  0  0
    2.8344    1.5877   -2.6990 H   0  0  0  0  0  0  0  0  0  0  0  0
  1 25  1  0  0  0  0
  1 26  1  0  0  0  0
  2  1  1  0  0  0  0
  3  2  2  0  0  0  0
  3 27  1  0  0  0  0
  4  3  1  0  0  0  0
  4 28  1  0  0  0  0
  5  4  2  0  0  0  0
  6  5  1  0  0  0  0
  6 29  1  0  0  0  0
  7  6  1  0  0  0  0
  8  7  2  0  0  0  0
  9  8  1  0  0  0  0
  9 30  1  0  0  0  0
 10  9  2  0  0  0  0
 10 31  1  0  0  0  0
 11 10  1  0  0  0  0
 12 11  1  0  0  0  0
 12 32  1  0  0  0  0
 12 33  1  0  0  0  0
 13 11  2  0  0  0  0
 13 34  1  0  0  0  0
 14 13  1  0  0  0  0
 14  8  1  0  0  0  0
 15 14  2  0  0  0  0
 16 15  1  0  0  0  0
 17 16  2  0  0  0  0
 17 35  1  0  0  0  0
 18 17  1  0  0  0  0
 19 18  1  0  0  0  0
 19 36  1  0  0  0  0
 19 37  1  0  0  0  0
 20 18  2  0  0  0  0
 20 38  1  0  0  0  0
 21 20  1  0  0  0  0
 21 39  1  0  0  0  0
 22 21  2  0  0  0  0
 22  7  1  0  0  0  0
 22 16  1  0  0  0  0
 23  5  1  0  0  0  0
 23 40  1  0  0  0  0
 24 23  2  0  0  0  0
 24  2  1  0  0  0  0
 24 41  1  0  0  0  0
M  END
>  <MOL Chiral Flag>
0

>  <energy>
38.360382975061441

$$$$
