>657.sdf
 OpenBabel10062216213D

 90 89  0  0  0  0  0  0  0  0999 V2000
   -9.6618   -8.7298   10.1677 C   0  0  0  0  0  0  0  0  0  0  0  0
   -9.2085   -7.2999   10.4568 C   0  0  0  0  0  0  0  0  0  0  0  0
   -8.8832   -6.4843    9.1949 C   0  0  0  0  0  0  0  0  0  0  0  0
   -7.7583   -7.1048    8.3537 C   0  0  0  0  0  0  0  0  0  0  0  0
   -7.3231   -6.1613    7.2291 C   0  0  0  0  0  0  0  0  0  0  0  0
   -6.2328   -6.8095    6.3641 C   0  0  0  0  0  0  0  0  0  0  0  0
   -5.6424   -5.7893    5.3910 C   0  0  0  0  0  0  0  0  0  0  0  0
   -4.5072   -6.3899    4.5393 C   0  0  0  0  0  0  0  0  0  0  0  0
   -3.7621   -5.2594    3.8271 C   0  0  0  0  0  0  0  0  0  0  0  0
   -2.4940   -5.7221    3.0649 C   0  0  0  0  0  0  0  0  0  0  0  0
   -1.6179   -4.5198    2.6232 C   0  0  0  0  0  0  0  0  0  0  0  0
   -0.9629   -3.8433    3.8461 C   0  0  0  0  0  0  0  0  0  0  0  0
   -0.3925   -2.4427    3.6247 C   0  0  0  0  0  0  0  0  0  0  0  0
    1.0344   -2.3582    3.0592 C   0  0  0  0  0  0  0  0  0  0  0  0
    1.5387   -0.9141    3.2716 C   0  0  0  0  0  0  0  0  0  0  0  0
    3.0727   -0.7559    3.3369 C   0  0  0  0  0  0  0  0  0  0  0  0
    3.9545   -0.7906    1.7183 S   0  0  0  0  0  0  0  0  0  0  0  0
    3.2951    0.8244    1.1472 C   0  0  0  0  0  0  0  0  0  0  0  0
    4.3092    1.9887    0.9443 C   0  0  2  0  0  0  0  0  0  0  0  0
    3.4417    3.2743    1.0284 C   0  0  0  0  0  0  0  0  0  0  0  0
    4.1577    4.4822    0.9152 O   0  0  0  0  0  0  0  0  0  0  0  0
    3.3274    5.5435    1.3766 C   0  0  0  0  0  0  0  0  0  0  0  0
    5.0595    1.8221   -0.4119 C   0  0  0  0  0  0  0  0  0  0  0  0
    6.0437    2.8279   -0.6153 O   0  0  0  0  0  0  0  0  0  0  0  0
    6.1106    3.4044   -2.2961 P   0  0  1  0  0  0  0  0  0  0  0  0
    4.9099    2.8529   -3.1145 O   0  0  0  0  0  0  0  0  0  0  0  0
    5.8821    5.1263   -2.2761 O   0  5  0  0  0  0  0  0  0  0  0  0
    7.5763    3.0217   -3.2220 O   0  0  0  0  0  0  0  0  0  0  0  0
    7.5817    3.7791   -4.4345 C   0  0  0  0  0  0  0  0  0  0  0  0
    8.7560    4.7947   -4.4728 C   0  0  0  0  0  0  0  0  0  0  0  0
   10.0367    4.3411   -5.1010 N   0  3  0  0  0  0  0  0  0  0  0  0
   10.4214    2.9606   -4.7140 C   0  0  0  0  0  0  0  0  0  0  0  0
   11.1198    5.2621   -4.6775 C   0  0  0  0  0  0  0  0  0  0  0  0
    9.9359    4.4130   -6.5834 C   0  0  0  0  0  0  0  0  0  0  0  0
  -10.5602   -8.7285    9.5160 H   0  0  0  0  0  0  0  0  0  0  0  0
   -9.9116   -9.2342   11.1248 H   0  0  0  0  0  0  0  0  0  0  0  0
   -8.8513   -9.3123    9.6828 H   0  0  0  0  0  0  0  0  0  0  0  0
  -10.0210   -6.7768   11.0062 H   0  0  0  0  0  0  0  0  0  0  0  0
   -8.3132   -7.3329   11.1152 H   0  0  0  0  0  0  0  0  0  0  0  0
   -8.5701   -5.4724    9.5347 H   0  0  0  0  0  0  0  0  0  0  0  0
   -9.7937   -6.3720    8.5661 H   0  0  0  0  0  0  0  0  0  0  0  0
   -8.1039   -8.0650    7.9164 H   0  0  0  0  0  0  0  0  0  0  0  0
   -6.8772   -7.2976    9.0053 H   0  0  0  0  0  0  0  0  0  0  0  0
   -8.1877   -5.8894    6.5846 H   0  0  0  0  0  0  0  0  0  0  0  0
   -6.9262   -5.2336    7.7001 H   0  0  0  0  0  0  0  0  0  0  0  0
   -5.4105   -7.1648    7.0246 H   0  0  0  0  0  0  0  0  0  0  0  0
   -6.6534   -7.6785    5.8139 H   0  0  0  0  0  0  0  0  0  0  0  0
   -5.2296   -4.9647    6.0165 H   0  0  0  0  0  0  0  0  0  0  0  0
   -6.4268   -5.3638    4.7278 H   0  0  0  0  0  0  0  0  0  0  0  0
   -3.7830   -6.8927    5.2181 H   0  0  0  0  0  0  0  0  0  0  0  0
   -4.9038   -7.1370    3.8190 H   0  0  0  0  0  0  0  0  0  0  0  0
   -3.4978   -4.5727    4.6420 H   0  0  0  0  0  0  0  0  0  0  0  0
   -4.4366   -4.7082    3.1364 H   0  0  0  0  0  0  0  0  0  0  0  0
   -2.8268   -6.2991    2.1749 H   0  0  0  0  0  0  0  0  0  0  0  0
   -1.8725   -6.3932    3.6975 H   0  0  0  0  0  0  0  0  0  0  0  0
   -2.2699   -3.8041    2.0771 H   0  0  0  0  0  0  0  0  0  0  0  0
   -0.8129   -4.8549    1.9340 H   0  0  0  0  0  0  0  0  0  0  0  0
   -0.2187   -4.5163    4.3275 H   0  0  0  0  0  0  0  0  0  0  0  0
   -1.7305   -3.6515    4.6046 H   0  0  0  0  0  0  0  0  0  0  0  0
   -1.1129   -1.8013    3.0704 H   0  0  0  0  0  0  0  0  0  0  0  0
   -0.3234   -2.0347    4.6594 H   0  0  0  0  0  0  0  0  0  0  0  0
    1.6598   -3.0359    3.6762 H   0  0  0  0  0  0  0  0  0  0  0  0
    1.1013   -2.6761    1.9954 H   0  0  0  0  0  0  0  0  0  0  0  0
    1.0354   -0.2267    2.5574 H   0  0  0  0  0  0  0  0  0  0  0  0
    1.2182   -0.5854    4.2834 H   0  0  0  0  0  0  0  0  0  0  0  0
    3.3081    0.2213    3.8157 H   0  0  0  0  0  0  0  0  0  0  0  0
    3.4941   -1.5083    4.0367 H   0  0  0  0  0  0  0  0  0  0  0  0
    2.6655    0.6675    0.2487 H   0  0  0  0  0  0  0  0  0  0  0  0
    2.5787    1.1527    1.9171 H   0  0  0  0  0  0  0  0  0  0  0  0
    5.0342    2.0109    1.7900 H   0  0  0  0  0  0  0  0  0  0  0  0
    2.9620    3.2429    2.0413 H   0  0  0  0  0  0  0  0  0  0  0  0
    2.6557    3.2338    0.2410 H   0  0  0  0  0  0  0  0  0  0  0  0
    3.4439    6.4219    0.7134 H   0  0  0  0  0  0  0  0  0  0  0  0
    2.2292    5.3178    1.3666 H   0  0  0  0  0  0  0  0  0  0  0  0
    3.6063    5.8157    2.4170 H   0  0  0  0  0  0  0  0  0  0  0  0
    4.2711    1.8050   -1.1873 H   0  0  0  0  0  0  0  0  0  0  0  0
    5.5766    0.8393   -0.4240 H   0  0  0  0  0  0  0  0  0  0  0  0
    6.6536    4.3784   -4.5593 H   0  0  0  0  0  0  0  0  0  0  0  0
    7.5687    3.1161   -5.3248 H   0  0  0  0  0  0  0  0  0  0  0  0
    8.9021    5.1586   -3.4298 H   0  0  0  0  0  0  0  0  0  0  0  0
    8.4014    5.6915   -5.0347 H   0  0  0  0  0  0  0  0  0  0  0  0
    9.6989    2.2139   -5.1065 H   0  0  0  0  0  0  0  0  0  0  0  0
   11.4134    2.6913   -5.1441 H   0  0  0  0  0  0  0  0  0  0  0  0
   10.4813    2.8588   -3.6104 H   0  0  0  0  0  0  0  0  0  0  0  0
   10.8749    6.3173   -4.9393 H   0  0  0  0  0  0  0  0  0  0  0  0
   11.2766    5.2125   -3.5764 H   0  0  0  0  0  0  0  0  0  0  0  0
   12.0889    5.0099   -5.1644 H   0  0  0  0  0  0  0  0  0  0  0  0
    9.1365    3.7485   -6.9728 H   0  0  0  0  0  0  0  0  0  0  0  0
   10.8927    4.1204   -7.0722 H   0  0  0  0  0  0  0  0  0  0  0  0
    9.7089    5.4518   -6.9199 H   0  0  0  0  0  0  0  0  0  0  0  0
  1 35  1  0  0  0  0
  1 36  1  0  0  0  0
  1 37  1  0  0  0  0
  2  1  1  0  0  0  0
  2 38  1  0  0  0  0
  2 39  1  0  0  0  0
  3  2  1  0  0  0  0
  3 40  1  0  0  0  0
  3 41  1  0  0  0  0
  4  3  1  0  0  0  0
  4 42  1  0  0  0  0
  4 43  1  0  0  0  0
  5  4  1  0  0  0  0
  5 44  1  0  0  0  0
  5 45  1  0  0  0  0
  6  5  1  0  0  0  0
  6 46  1  0  0  0  0
  6 47  1  0  0  0  0
  7  6  1  0  0  0  0
  7 48  1  0  0  0  0
  7 49  1  0  0  0  0
  8  7  1  0  0  0  0
  8 50  1  0  0  0  0
  8 51  1  0  0  0  0
  9  8  1  0  0  0  0
  9 52  1  0  0  0  0
  9 53  1  0  0  0  0
 10  9  1  0  0  0  0
 10 54  1  0  0  0  0
 10 55  1  0  0  0  0
 11 10  1  0  0  0  0
 11 56  1  0  0  0  0
 11 57  1  0  0  0  0
 12 11  1  0  0  0  0
 12 58  1  0  0  0  0
 12 59  1  0  0  0  0
 13 12  1  0  0  0  0
 13 60  1  0  0  0  0
 13 61  1  0  0  0  0
 14 13  1  0  0  0  0
 14 62  1  0  0  0  0
 14 63  1  0  0  0  0
 15 14  1  0  0  0  0
 15 64  1  0  0  0  0
 15 65  1  0  0  0  0
 16 15  1  0  0  0  0
 16 66  1  0  0  0  0
 16 67  1  0  0  0  0
 17 16  1  0  0  0  0
 18 17  1  0  0  0  0
 18 68  1  0  0  0  0
 18 69  1  0  0  0  0
 19 18  1  0  0  0  0
 19 70  1  1  0  0  0
 20 19  1  0  0  0  0
 20 71  1  0  0  0  0
 20 72  1  0  0  0  0
 21 20  1  0  0  0  0
 22 21  1  0  0  0  0
 22 73  1  0  0  0  0
 22 74  1  0  0  0  0
 22 75  1  0  0  0  0
 23 19  1  0  0  0  0
 23 76  1  0  0  0  0
 23 77  1  0  0  0  0
 24 23  1  0  0  0  0
 25 24  1  1  0  0  0
 26 25  2  0  0  0  0
 27 25  1  0  0  0  0
 28 25  1  0  0  0  0
 29 28  1  0  0  0  0
 29 78  1  0  0  0  0
 29 79  1  0  0  0  0
 30 29  1  0  0  0  0
 30 80  1  0  0  0  0
 30 81  1  0  0  0  0
 31 30  1  0  0  0  0
 32 31  1  0  0  0  0
 32 82  1  0  0  0  0
 32 83  1  0  0  0  0
 32 84  1  0  0  0  0
 33 31  1  0  0  0  0
 33 85  1  0  0  0  0
 33 86  1  0  0  0  0
 33 87  1  0  0  0  0
 34 31  1  0  0  0  0
 34 88  1  0  0  0  0
 34 89  1  0  0  0  0
 34 90  1  0  0  0  0
M  CHG  2  27  -1  31   1
M  END
>  <MOL Chiral Flag>
0

>  <energy>
-103.79570289020018

$$$$
