>658.sdf
 OpenBabel10062216223D

 50 52  0  0  0  0  0  0  0  0999 V2000
   -4.6558   -1.4428   -1.1065 C   0  0  0  0  0  0  0  0  0  0  0  0
   -4.0436   -0.0320   -0.9288 C   0  0  0  0  0  0  0  0  0  0  0  0
   -5.0265    0.8164   -0.0913 C   0  0  0  0  0  0  0  0  0  0  0  0
   -3.9318    0.5889   -2.3437 C   0  0  0  0  0  0  0  0  0  0  0  0
   -2.6015   -0.1127   -0.2776 C   0  0  2  0  0  0  0  0  0  0  0  0
   -2.5130   -1.0136    0.9854 C   0  0  0  0  0  0  0  0  0  0  0  0
   -1.0483   -1.2031    1.4128 C   0  0  0  0  0  0  0  0  0  0  0  0
   -0.3783    0.1637    1.6836 C   0  0  2  0  0  0  0  0  0  0  0  0
   -0.5745    1.2105    0.5571 C   0  0  0  0  0  0  0  0  0  0  0  0
   -2.0350    1.2881    0.1079 C   0  0  0  0  0  0  0  0  0  0  0  0
    1.0863    0.0763    2.2099 C   0  0  0  0  0  0  0  0  0  0  0  0
    2.4302   -0.0409    1.4357 C   0  0  0  0  0  0  0  0  0  0  0  0
    2.6351   -0.2706    0.0870 C   0  0  0  0  0  0  0  0  0  0  0  0
    4.0058   -0.1810   -0.5188 C   0  0  0  0  0  0  0  0  0  0  0  0
    4.1608   -0.3064   -1.9158 C   0  0  0  0  0  0  0  0  0  0  0  0
    5.4208   -0.1914   -2.5053 C   0  0  0  0  0  0  0  0  0  0  0  0
    6.5446    0.0407   -1.7147 C   0  0  0  0  0  0  0  0  0  0  0  0
    6.4122    0.1621   -0.3309 C   0  0  0  0  0  0  0  0  0  0  0  0
    5.1452    0.0590    0.2726 C   0  0  0  0  0  0  0  0  0  0  0  0
    4.9883    0.2127    1.7228 C   0  0  0  0  0  0  0  0  0  0  0  0
    5.9615    0.3888    2.4426 O   0  0  0  0  0  0  0  0  0  0  0  0
    3.6377    0.1846    2.3018 C   0  0  0  0  0  0  0  0  0  0  0  0
    3.5074    0.3466    3.5072 O   0  0  0  0  0  0  0  0  0  0  0  0
    1.6451   -0.5824   -0.7712 O   0  0  0  0  0  0  0  0  0  0  0  0
   -3.9755   -2.1011   -1.6881 H   0  0  0  0  0  0  0  0  0  0  0  0
   -5.6277   -1.3851   -1.6432 H   0  0  0  0  0  0  0  0  0  0  0  0
   -4.8746   -1.9200   -0.1290 H   0  0  0  0  0  0  0  0  0  0  0  0
   -6.0289    0.8375   -0.5714 H   0  0  0  0  0  0  0  0  0  0  0  0
   -4.6875    1.8709   -0.0179 H   0  0  0  0  0  0  0  0  0  0  0  0
   -5.1398    0.4038    0.9322 H   0  0  0  0  0  0  0  0  0  0  0  0
   -3.2540   -0.0197   -2.9825 H   0  0  0  0  0  0  0  0  0  0  0  0
   -3.5464    1.6265   -2.3219 H   0  0  0  0  0  0  0  0  0  0  0  0
   -4.9250    0.6203   -2.8415 H   0  0  0  0  0  0  0  0  0  0  0  0
   -1.9418   -0.5810   -1.0440 H   0  0  0  0  0  0  0  0  0  0  0  0
   -3.1025   -0.5628    1.8138 H   0  0  0  0  0  0  0  0  0  0  0  0
   -2.9054   -2.0317    0.7945 H   0  0  0  0  0  0  0  0  0  0  0  0
   -0.5493   -1.8154    0.6495 H   0  0  0  0  0  0  0  0  0  0  0  0
   -1.0235   -1.8134    2.3425 H   0  0  0  0  0  0  0  0  0  0  0  0
   -0.9704    0.5518    2.5467 H   0  0  0  0  0  0  0  0  0  0  0  0
   -0.2426    2.2106    0.9115 H   0  0  0  0  0  0  0  0  0  0  0  0
    0.0103    1.0114   -0.3452 H   0  0  0  0  0  0  0  0  0  0  0  0
   -2.0777    2.0006   -0.7396 H   0  0  0  0  0  0  0  0  0  0  0  0
   -2.6328    1.7110    0.9436 H   0  0  0  0  0  0  0  0  0  0  0  0
    1.1978    1.0678    2.7044 H   0  0  0  0  0  0  0  0  0  0  0  0
    1.0978   -0.6810    3.0246 H   0  0  0  0  0  0  0  0  0  0  0  0
    3.3050   -0.4782   -2.5561 H   0  0  0  0  0  0  0  0  0  0  0  0
    5.5239   -0.2776   -3.5794 H   0  0  0  0  0  0  0  0  0  0  0  0
    7.5194    0.1323   -2.1757 H   0  0  0  0  0  0  0  0  0  0  0  0
    7.2950    0.3482    0.2677 H   0  0  0  0  0  0  0  0  0  0  0  0
    0.7833   -0.8867   -0.5172 H   0  0  0  0  0  0  0  0  0  0  0  0
  1 25  1  0  0  0  0
  1 26  1  0  0  0  0
  1 27  1  0  0  0  0
  2  1  1  0  0  0  0
  3  2  1  0  0  0  0
  3 28  1  0  0  0  0
  3 29  1  0  0  0  0
  3 30  1  0  0  0  0
  4  2  1  0  0  0  0
  4 31  1  0  0  0  0
  4 32  1  0  0  0  0
  4 33  1  0  0  0  0
  5  2  1  0  0  0  0
  5 34  1  6  0  0  0
  6  5  1  0  0  0  0
  6 35  1  0  0  0  0
  6 36  1  0  0  0  0
  7  6  1  0  0  0  0
  7 37  1  0  0  0  0
  7 38  1  0  0  0  0
  8  7  1  0  0  0  0
  8 39  1  1  0  0  0
  9  8  1  0  0  0  0
  9 40  1  0  0  0  0
  9 41  1  0  0  0  0
 10  9  1  0  0  0  0
 10  5  1  0  0  0  0
 10 42  1  0  0  0  0
 10 43  1  0  0  0  0
 11  8  1  0  0  0  0
 11 44  1  0  0  0  0
 11 45  1  0  0  0  0
 12 11  1  0  0  0  0
 13 12  2  0  0  0  0
 14 13  1  0  0  0  0
 15 14  2  0  0  0  0
 15 46  1  0  0  0  0
 16 15  1  0  0  0  0
 16 47  1  0  0  0  0
 17 16  2  0  0  0  0
 17 48  1  0  0  0  0
 18 17  1  0  0  0  0
 18 49  1  0  0  0  0
 19 18  2  0  0  0  0
 19 14  1  0  0  0  0
 20 19  1  0  0  0  0
 21 20  2  0  0  0  0
 22 20  1  0  0  0  0
 22 12  1  0  0  0  0
 23 22  2  0  0  0  0
 24 13  1  0  0  0  0
 24 50  1  0  0  0  0
M  END
>  <MOL Chiral Flag>
0

>  <energy>
108.3929205572106

$$$$
