>7.sdf
 OpenBabel10042211403D

 21 21  0  0  0  0  0  0  0  0999 V2000
   -4.7481   -0.6125    0.3778 N   0  0  0  0  0  0  0  0  0  0  0  0
   -3.5279   -0.2868    0.8913 C   0  0  0  0  0  0  0  0  0  0  0  0
   -3.4720    0.4782    2.3678 S   0  0  0  0  0  0  0  0  0  0  0  0
   -2.4701   -0.6303    0.0864 N   0  0  0  0  0  0  0  0  0  0  0  0
   -1.1843   -0.3302    0.4355 N   0  0  0  0  0  0  0  0  0  0  0  0
   -0.3371   -0.3486   -0.5402 C   0  0  0  0  0  0  0  0  0  0  0  0
    1.0845    0.0007   -0.3389 C   0  0  0  0  0  0  0  0  0  0  0  0
    1.6171    0.0029    0.9614 C   0  0  0  0  0  0  0  0  0  0  0  0
    2.9576    0.3453    1.1668 C   0  0  0  0  0  0  0  0  0  0  0  0
    3.7575    0.6852    0.0757 C   0  0  0  0  0  0  0  0  0  0  0  0
    5.4066    1.1141    0.3338 Cl  0  0  0  0  0  0  0  0  0  0  0  0
    3.2392    0.6838   -1.2168 C   0  0  0  0  0  0  0  0  0  0  0  0
    1.9025    0.3397   -1.4277 C   0  0  0  0  0  0  0  0  0  0  0  0
    1.3223    0.3861   -3.0585 Cl  0  0  0  0  0  0  0  0  0  0  0  0
   -4.8975   -0.9899   -0.5442 H   0  0  0  0  0  0  0  0  0  0  0  0
   -5.5590   -0.3160    0.9050 H   0  0  0  0  0  0  0  0  0  0  0  0
   -2.6635   -0.9803   -0.8434 H   0  0  0  0  0  0  0  0  0  0  0  0
   -0.6623   -0.5743   -1.5736 H   0  0  0  0  0  0  0  0  0  0  0  0
    0.9924   -0.2575    1.8172 H   0  0  0  0  0  0  0  0  0  0  0  0
    3.3671    0.3422    2.1784 H   0  0  0  0  0  0  0  0  0  0  0  0
    3.8752    0.9483   -2.0540 H   0  0  0  0  0  0  0  0  0  0  0  0
  1 15  1  0  0  0  0
  1 16  1  0  0  0  0
  2  1  1  0  0  0  0
  3  2  2  0  0  0  0
  4  2  1  0  0  0  0
  4 17  1  0  0  0  0
  5  4  1  0  0  0  0
  6  5  2  0  0  0  0
  6 18  1  0  0  0  0
  7  6  1  0  0  0  0
  8  7  2  0  0  0  0
  8 19  1  0  0  0  0
  9  8  1  0  0  0  0
  9 20  1  0  0  0  0
 10  9  2  0  0  0  0
 11 10  1  0  0  0  0
 12 10  1  0  0  0  0
 12 21  1  0  0  0  0
 13 12  2  0  0  0  0
 13  7  1  0  0  0  0
 14 13  1  0  0  0  0
M  END
>  <energy>
4.556683324386448

$$$$
