>71.sdf
 OpenBabel10052218193D

 58 61  0  0  0  0  0  0  0  0999 V2000
    5.3052    1.8808   -2.7985 C   0  0  0  0  0  0  0  0  0  0  0  0
    4.0754    2.3063   -2.3464 O   0  0  0  0  0  0  0  0  0  0  0  0
    3.8510    2.7213   -1.0723 C   0  0  0  0  0  0  0  0  0  0  0  0
    4.7899    2.9144   -0.3107 O   0  0  0  0  0  0  0  0  0  0  0  0
    2.4585    2.8115   -0.5755 C   0  0  0  0  0  0  0  0  0  0  0  0
    2.1934    3.0427    0.7811 C   0  0  0  0  0  0  0  0  0  0  0  0
    0.8836    3.0124    1.2840 C   0  0  0  0  0  0  0  0  0  0  0  0
    0.7665    3.1548    3.0344 Cl  0  0  0  0  0  0  0  0  0  0  0  0
   -0.2073    2.7603    0.3872 C   0  0  0  0  0  0  0  0  0  0  0  0
   -1.5834    2.5687    0.7583 N   0  0  0  0  0  0  0  0  0  0  0  0
   -2.2599    2.9782    1.8686 C   0  0  0  0  0  0  0  0  0  0  0  0
   -1.7809    3.7722    2.6561 O   0  0  0  0  0  0  0  0  0  0  0  0
   -3.6612    2.4764    2.0992 C   0  0  0  0  0  0  0  0  0  0  0  0
   -3.6633    0.6625    2.4208 S   0  0  0  0  0  0  0  0  0  0  0  0
   -3.5999    0.0729    0.7139 C   0  0  0  0  0  0  0  0  0  0  0  0
   -4.2616    0.6874   -0.3016 N   0  0  0  0  0  0  0  0  0  0  0  0
   -3.9499   -0.0400   -1.3876 C   0  0  0  0  0  0  0  0  0  0  0  0
   -3.1365   -1.0756   -1.0380 C   0  0  0  0  0  0  0  0  0  0  0  0
   -2.6808   -1.9980   -1.9815 C   0  0  0  0  0  0  0  0  0  0  0  0
   -3.0728   -1.8182   -3.3227 C   0  0  0  0  0  0  0  0  0  0  0  0
   -2.5257   -2.9450   -4.5502 Cl  0  0  0  0  0  0  0  0  0  0  0  0
   -3.9063   -0.7316   -3.6819 C   0  0  0  0  0  0  0  0  0  0  0  0
   -4.3568    0.1716   -2.7007 C   0  0  0  0  0  0  0  0  0  0  0  0
   -2.8997   -1.0160    0.2844 N   0  0  0  0  0  0  0  0  0  0  0  0
   -1.8895   -2.1447    1.2250 S   0  0  0  0  0  0  0  0  0  0  0  0
   -2.3924   -3.5402    0.8248 O   0  0  0  0  0  0  0  0  0  0  0  0
   -2.4068   -2.0736    2.6696 O   0  0  0  0  0  0  0  0  0  0  0  0
   -0.0887   -2.0644    1.1334 C   0  0  0  0  0  0  0  0  0  0  0  0
    0.6614   -1.7397    2.2719 C   0  0  0  0  0  0  0  0  0  0  0  0
    2.0652   -1.7075    2.2109 C   0  0  0  0  0  0  0  0  0  0  0  0
    2.8785   -1.3736    3.4262 C   0  0  0  0  0  0  0  0  0  0  0  0
    2.7153   -1.9991    1.0035 C   0  0  0  0  0  0  0  0  0  0  0  0
    1.9714   -2.3249   -0.1393 C   0  0  0  0  0  0  0  0  0  0  0  0
    2.6603   -2.6477   -1.4338 C   0  0  0  0  0  0  0  0  0  0  0  0
    0.5716   -2.3570   -0.0685 C   0  0  0  0  0  0  0  0  0  0  0  0
    0.0907    2.5633   -0.9748 C   0  0  0  0  0  0  0  0  0  0  0  0
    1.3944    2.5886   -1.4492 C   0  0  0  0  0  0  0  0  0  0  0  0
    6.0588    2.6894   -2.7013 H   0  0  0  0  0  0  0  0  0  0  0  0
    5.6284    0.9897   -2.2166 H   0  0  0  0  0  0  0  0  0  0  0  0
    5.2168    1.5876   -3.8646 H   0  0  0  0  0  0  0  0  0  0  0  0
    3.0161    3.1945    1.4694 H   0  0  0  0  0  0  0  0  0  0  0  0
   -2.1397    2.0455    0.0725 H   0  0  0  0  0  0  0  0  0  0  0  0
   -4.0961    2.9587    3.0010 H   0  0  0  0  0  0  0  0  0  0  0  0
   -4.3342    2.7442    1.2589 H   0  0  0  0  0  0  0  0  0  0  0  0
   -2.0527   -2.8288   -1.7034 H   0  0  0  0  0  0  0  0  0  0  0  0
   -4.2033   -0.5947   -4.7136 H   0  0  0  0  0  0  0  0  0  0  0  0
   -4.9971    1.0043   -2.9603 H   0  0  0  0  0  0  0  0  0  0  0  0
    0.1555   -1.5218    3.2037 H   0  0  0  0  0  0  0  0  0  0  0  0
    2.2346   -1.1719    4.3081 H   0  0  0  0  0  0  0  0  0  0  0  0
    3.4961   -0.4729    3.2260 H   0  0  0  0  0  0  0  0  0  0  0  0
    3.5488   -2.2254    3.6699 H   0  0  0  0  0  0  0  0  0  0  0  0
    3.7981   -1.9772    0.9577 H   0  0  0  0  0  0  0  0  0  0  0  0
    2.3951   -3.6785   -1.7512 H   0  0  0  0  0  0  0  0  0  0  0  0
    3.7655   -2.5863   -1.3379 H   0  0  0  0  0  0  0  0  0  0  0  0
    2.3365   -1.9321   -2.2185 H   0  0  0  0  0  0  0  0  0  0  0  0
    0.0063   -2.6171   -0.9482 H   0  0  0  0  0  0  0  0  0  0  0  0
   -0.7075    2.3559   -1.6780 H   0  0  0  0  0  0  0  0  0  0  0  0
    1.5707    2.4016   -2.5011 H   0  0  0  0  0  0  0  0  0  0  0  0
  1 38  1  0  0  0  0
  1 39  1  0  0  0  0
  1 40  1  0  0  0  0
  2  1  1  0  0  0  0
  3  2  1  0  0  0  0
  4  3  2  0  0  0  0
  5  3  1  0  0  0  0
  6  5  2  0  0  0  0
  6 41  1  0  0  0  0
  7  6  1  0  0  0  0
  8  7  1  0  0  0  0
  9  7  2  0  0  0  0
 10  9  1  0  0  0  0
 10 42  1  0  0  0  0
 11 10  1  0  0  0  0
 12 11  2  0  0  0  0
 13 11  1  0  0  0  0
 13 43  1  0  0  0  0
 13 44  1  0  0  0  0
 14 13  1  0  0  0  0
 15 14  1  0  0  0  0
 16 15  2  0  0  0  0
 17 16  1  0  0  0  0
 18 17  2  0  0  0  0
 19 18  1  0  0  0  0
 19 45  1  0  0  0  0
 20 19  2  0  0  0  0
 21 20  1  0  0  0  0
 22 20  1  0  0  0  0
 22 46  1  0  0  0  0
 23 22  2  0  0  0  0
 23 17  1  0  0  0  0
 23 47  1  0  0  0  0
 24 18  1  0  0  0  0
 24 15  1  0  0  0  0
 25 24  1  0  0  0  0
 26 25  2  0  0  0  0
 27 25  2  0  0  0  0
 28 25  1  0  0  0  0
 29 28  2  0  0  0  0
 29 48  1  0  0  0  0
 30 29  1  0  0  0  0
 31 30  1  0  0  0  0
 31 49  1  0  0  0  0
 31 50  1  0  0  0  0
 31 51  1  0  0  0  0
 32 30  2  0  0  0  0
 32 52  1  0  0  0  0
 33 32  1  0  0  0  0
 34 33  1  0  0  0  0
 34 53  1  0  0  0  0
 34 54  1  0  0  0  0
 34 55  1  0  0  0  0
 35 33  2  0  0  0  0
 35 28  1  0  0  0  0
 35 56  1  0  0  0  0
 36  9  1  0  0  0  0
 36 57  1  0  0  0  0
 37 36  2  0  0  0  0
 37  5  1  0  0  0  0
 37 58  1  0  0  0  0
M  END
>  <MOL Chiral Flag>
0

>  <energy>
135.83980957606337

$$$$
