>74.sdf
 OpenBabel10052218203D

 44 48  0  0  0  0  0  0  0  0999 V2000
    3.9922    4.0767   -0.5780 C   0  0  0  0  0  0  0  0  0  0  0  0
    2.8390    3.1459   -0.3379 C   0  0  0  0  0  0  0  0  0  0  0  0
    3.0390    1.7619   -0.3527 C   0  0  0  0  0  0  0  0  0  0  0  0
    1.9772    0.8916   -0.0991 C   0  0  0  0  0  0  0  0  0  0  0  0
    2.1964   -0.4425   -0.1423 N   0  0  0  0  0  0  0  0  0  0  0  0
    1.2257   -1.3556    0.1135 C   0  0  0  0  0  0  0  0  0  0  0  0
   -0.0749   -0.9232    0.4493 C   0  0  0  0  0  0  0  0  0  0  0  0
   -1.0997   -1.9497    0.8257 C   0  0  0  0  0  0  0  0  0  0  0  0
   -2.1994   -1.6229    1.2467 O   0  0  0  0  0  0  0  0  0  0  0  0
   -0.7484   -3.3788    0.7857 C   0  0  0  0  0  0  0  0  0  0  0  0
   -1.5574   -4.2172    1.1576 O   0  0  0  0  0  0  0  0  0  0  0  0
    0.5649   -3.7857    0.2503 C   0  0  0  0  0  0  0  0  0  0  0  0
    1.5265   -2.8025   -0.0683 C   0  0  0  0  0  0  0  0  0  0  0  0
    2.7538   -3.2002   -0.6329 C   0  0  0  0  0  0  0  0  0  0  0  0
    3.0136   -4.5482   -0.8827 C   0  0  0  0  0  0  0  0  0  0  0  0
    2.0664   -5.5173   -0.5539 C   0  0  0  0  0  0  0  0  0  0  0  0
    0.8507   -5.1425    0.0196 C   0  0  0  0  0  0  0  0  0  0  0  0
   -0.3658    0.4695    0.4063 C   0  0  0  0  0  0  0  0  0  0  0  0
   -1.7819    0.9062    0.3983 C   0  0  0  0  0  0  0  0  0  0  0  0
   -2.4765    0.7314   -0.8075 C   0  0  0  0  0  0  0  0  0  0  0  0
   -3.8220    1.0590   -0.9119 C   0  0  0  0  0  0  0  0  0  0  0  0
   -4.5164    1.5655    0.1970 C   0  0  0  0  0  0  0  0  0  0  0  0
   -3.8183    1.7494    1.4144 C   0  0  0  0  0  0  0  0  0  0  0  0
   -2.4530    1.4240    1.5141 C   0  0  0  0  0  0  0  0  0  0  0  0
   -5.9081    1.8779    0.0907 N   0  0  0  0  0  0  0  0  0  0  0  0
   -6.5039    2.3131    1.0273 O   0  0  0  0  0  0  0  0  0  0  0  0
   -6.4920    1.6857   -0.9358 O   0  0  0  0  0  0  0  0  0  0  0  0
    0.6814    1.3919    0.1546 C   0  0  0  0  0  0  0  0  0  0  0  0
    0.4773    2.7880    0.1332 C   0  0  0  0  0  0  0  0  0  0  0  0
    1.5546    3.6557   -0.0955 C   0  0  0  0  0  0  0  0  0  0  0  0
    4.9137    3.5200   -0.8560 H   0  0  0  0  0  0  0  0  0  0  0  0
    4.2016    4.6499    0.3494 H   0  0  0  0  0  0  0  0  0  0  0  0
    3.7521    4.7820   -1.4004 H   0  0  0  0  0  0  0  0  0  0  0  0
    4.0246    1.3561   -0.5504 H   0  0  0  0  0  0  0  0  0  0  0  0
    3.4986   -2.4657   -0.9121 H   0  0  0  0  0  0  0  0  0  0  0  0
    3.9480   -4.8401   -1.3436 H   0  0  0  0  0  0  0  0  0  0  0  0
    2.2685   -6.5605   -0.7567 H   0  0  0  0  0  0  0  0  0  0  0  0
    0.1211   -5.9070    0.2555 H   0  0  0  0  0  0  0  0  0  0  0  0
   -1.9636    0.3295   -1.6742 H   0  0  0  0  0  0  0  0  0  0  0  0
   -4.3230    0.9067   -1.8602 H   0  0  0  0  0  0  0  0  0  0  0  0
   -4.3343    2.1320    2.2849 H   0  0  0  0  0  0  0  0  0  0  0  0
   -1.9352    1.5518    2.4556 H   0  0  0  0  0  0  0  0  0  0  0  0
   -0.5018    3.2120    0.3136 H   0  0  0  0  0  0  0  0  0  0  0  0
    1.3888    4.7260   -0.0910 H   0  0  0  0  0  0  0  0  0  0  0  0
  1 31  1  0  0  0  0
  1 32  1  0  0  0  0
  1 33  1  0  0  0  0
  2  1  1  0  0  0  0
  3  2  2  0  0  0  0
  3 34  1  0  0  0  0
  4  3  1  0  0  0  0
  5  4  2  0  0  0  0
  6  5  1  0  0  0  0
  7  6  2  0  0  0  0
  8  7  1  0  0  0  0
  9  8  2  0  0  0  0
 10  8  1  0  0  0  0
 11 10  2  0  0  0  0
 12 10  1  0  0  0  0
 13 12  2  0  0  0  0
 13  6  1  0  0  0  0
 14 13  1  0  0  0  0
 14 35  1  0  0  0  0
 15 14  2  0  0  0  0
 15 36  1  0  0  0  0
 16 15  1  0  0  0  0
 16 37  1  0  0  0  0
 17 16  2  0  0  0  0
 17 12  1  0  0  0  0
 17 38  1  0  0  0  0
 18  7  1  0  0  0  0
 19 18  1  0  0  0  0
 20 19  2  0  0  0  0
 20 39  1  0  0  0  0
 21 20  1  0  0  0  0
 21 40  1  0  0  0  0
 22 21  2  0  0  0  0
 23 22  1  0  0  0  0
 23 41  1  0  0  0  0
 24 23  2  0  0  0  0
 24 19  1  0  0  0  0
 24 42  1  0  0  0  0
 25 22  1  0  0  0  0
 26 25  2  0  0  0  0
 27 25  2  0  0  0  0
 28 18  2  0  0  0  0
 28  4  1  0  0  0  0
 29 28  1  0  0  0  0
 29 43  1  0  0  0  0
 30 29  2  0  0  0  0
 30  2  1  0  0  0  0
 30 44  1  0  0  0  0
M  END
>  <MOL Chiral Flag>
0

>  <energy>
162.23080236608635

$$$$
