>75.sdf
 OpenBabel10052218203D

 40 43  0  0  0  0  0  0  0  0999 V2000
   -6.9908    2.8681   -0.1452 C   0  0  0  0  0  0  0  0  0  0  0  0
   -6.5722    1.8621    0.7038 O   0  0  0  0  0  0  0  0  0  0  0  0
   -5.4342    1.1363    0.5417 C   0  0  0  0  0  0  0  0  0  0  0  0
   -4.6232    1.2649   -0.6028 C   0  0  0  0  0  0  0  0  0  0  0  0
   -3.4340    0.5467   -0.7044 C   0  0  0  0  0  0  0  0  0  0  0  0
   -3.0320   -0.3152    0.3284 C   0  0  0  0  0  0  0  0  0  0  0  0
   -3.8526   -0.4726    1.4540 C   0  0  0  0  0  0  0  0  0  0  0  0
   -5.0464    0.2515    1.5581 C   0  0  0  0  0  0  0  0  0  0  0  0
   -1.7186   -0.9776    0.2488 C   0  0  0  0  0  0  0  0  0  0  0  0
   -0.8014   -0.6590   -0.6952 N   0  0  0  0  0  0  0  0  0  0  0  0
    0.2904   -1.3281   -0.3086 C   0  0  0  0  0  0  0  0  0  0  0  0
    0.0182   -2.0361    0.8168 C   0  0  0  0  0  0  0  0  0  0  0  0
   -1.2249   -1.8085    1.1595 O   0  0  0  0  0  0  0  0  0  0  0  0
    0.9923   -2.8077    1.4512 C   0  0  0  0  0  0  0  0  0  0  0  0
    2.2906   -2.8135    0.8922 C   0  0  0  0  0  0  0  0  0  0  0  0
    2.5720   -2.0339   -0.2618 C   0  0  0  0  0  0  0  0  0  0  0  0
    1.5464   -1.2887   -0.8779 C   0  0  0  0  0  0  0  0  0  0  0  0
    3.9459   -1.8992   -0.7724 C   0  0  0  0  0  0  0  0  0  0  0  0
    4.5522   -2.8858   -1.1625 O   0  0  0  0  0  0  0  0  0  0  0  0
    4.6210   -0.5691   -0.7047 C   0  0  0  0  0  0  0  0  0  0  0  0
    4.0852    0.4555    0.1087 C   0  0  0  0  0  0  0  0  0  0  0  0
    4.7351    1.6835    0.2259 C   0  0  0  0  0  0  0  0  0  0  0  0
    5.9182    1.9166   -0.4730 C   0  0  0  0  0  0  0  0  0  0  0  0
    6.4574    0.9170   -1.2883 C   0  0  0  0  0  0  0  0  0  0  0  0
    5.8191   -0.3255   -1.3992 C   0  0  0  0  0  0  0  0  0  0  0  0
   -7.9253    3.3141    0.2505 H   0  0  0  0  0  0  0  0  0  0  0  0
   -6.2188    3.6675   -0.1995 H   0  0  0  0  0  0  0  0  0  0  0  0
   -7.1906    2.4638   -1.1599 H   0  0  0  0  0  0  0  0  0  0  0  0
   -4.8927    1.9326   -1.4094 H   0  0  0  0  0  0  0  0  0  0  0  0
   -2.8152    0.6811   -1.5829 H   0  0  0  0  0  0  0  0  0  0  0  0
   -3.5538   -1.1254    2.2651 H   0  0  0  0  0  0  0  0  0  0  0  0
   -5.6592    0.1462    2.4444 H   0  0  0  0  0  0  0  0  0  0  0  0
    0.7720   -3.3531    2.3590 H   0  0  0  0  0  0  0  0  0  0  0  0
    3.0835   -3.3644    1.3827 H   0  0  0  0  0  0  0  0  0  0  0  0
    1.7370   -0.6809   -1.7544 H   0  0  0  0  0  0  0  0  0  0  0  0
    3.1785    0.3001    0.6789 H   0  0  0  0  0  0  0  0  0  0  0  0
    4.3218    2.4519    0.8676 H   0  0  0  0  0  0  0  0  0  0  0  0
    6.4190    2.8712   -0.3779 H   0  0  0  0  0  0  0  0  0  0  0  0
    7.3755    1.1039   -1.8287 H   0  0  0  0  0  0  0  0  0  0  0  0
    6.2551   -1.0905   -2.0285 H   0  0  0  0  0  0  0  0  0  0  0  0
  1 26  1  0  0  0  0
  1 27  1  0  0  0  0
  1 28  1  0  0  0  0
  2  1  1  0  0  0  0
  3  2  1  0  0  0  0
  4  3  2  0  0  0  0
  4 29  1  0  0  0  0
  5  4  1  0  0  0  0
  5 30  1  0  0  0  0
  6  5  2  0  0  0  0
  7  6  1  0  0  0  0
  7 31  1  0  0  0  0
  8  7  2  0  0  0  0
  8  3  1  0  0  0  0
  8 32  1  0  0  0  0
  9  6  1  0  0  0  0
 10  9  2  0  0  0  0
 11 10  1  0  0  0  0
 12 11  2  0  0  0  0
 13 12  1  0  0  0  0
 13  9  1  0  0  0  0
 14 12  1  0  0  0  0
 14 33  1  0  0  0  0
 15 14  2  0  0  0  0
 15 34  1  0  0  0  0
 16 15  1  0  0  0  0
 17 16  2  0  0  0  0
 17 11  1  0  0  0  0
 17 35  1  0  0  0  0
 18 16  1  0  0  0  0
 19 18  2  0  0  0  0
 20 18  1  0  0  0  0
 21 20  2  0  0  0  0
 21 36  1  0  0  0  0
 22 21  1  0  0  0  0
 22 37  1  0  0  0  0
 23 22  2  0  0  0  0
 23 38  1  0  0  0  0
 24 23  1  0  0  0  0
 24 39  1  0  0  0  0
 25 24  2  0  0  0  0
 25 20  1  0  0  0  0
 25 40  1  0  0  0  0
M  END
>  <MOL Chiral Flag>
0

>  <energy>
110.57486832141002

$$$$
