>83.sdf
 OpenBabel10052218243D

 40 42  0  0  0  0  0  0  0  0999 V2000
    0.2740    1.9455   -3.7854 O   0  0  0  0  0  0  0  0  0  0  0  0
    0.2644    2.0664   -2.5698 C   0  0  0  0  0  0  0  0  0  0  0  0
   -0.8040    2.6685   -1.9690 N   0  0  0  0  0  0  0  0  0  0  0  0
   -1.0804    2.5149   -0.5832 C   0  0  0  0  0  0  0  0  0  0  0  0
   -1.0445    3.6111    0.2865 C   0  0  0  0  0  0  0  0  0  0  0  0
   -1.3213    3.4315    1.6473 C   0  0  0  0  0  0  0  0  0  0  0  0
   -1.6666    2.1667    2.1380 C   0  0  0  0  0  0  0  0  0  0  0  0
   -1.7263    1.0654    1.2709 C   0  0  0  0  0  0  0  0  0  0  0  0
   -2.0629   -0.3109    1.7930 C   0  0  0  0  0  0  0  0  0  0  0  0
   -0.8967   -1.1441    1.5824 N   0  0  0  0  0  0  0  0  0  0  0  0
   -0.8952   -2.3469    0.8201 C   0  0  0  0  0  0  0  0  0  0  0  0
    0.2906   -2.7272    0.1750 C   0  0  0  0  0  0  0  0  0  0  0  0
    0.3436   -3.8981   -0.5812 C   0  0  0  0  0  0  0  0  0  0  0  0
   -0.7817   -4.7178   -0.6801 C   0  0  0  0  0  0  0  0  0  0  0  0
   -1.9670   -4.3602   -0.0304 C   0  0  0  0  0  0  0  0  0  0  0  0
   -2.0335   -3.1729    0.7108 C   0  0  0  0  0  0  0  0  0  0  0  0
   -1.4226    1.2451   -0.0879 C   0  0  0  0  0  0  0  0  0  0  0  0
    1.4435    1.5920   -1.8001 C   0  0  0  0  0  0  0  0  0  0  0  0
    1.9473    2.1400   -0.6059 C   0  0  0  0  0  0  0  0  0  0  0  0
    3.1391    1.5150   -0.1515 C   0  0  0  0  0  0  0  0  0  0  0  0
    3.5605    0.4771   -0.9853 C   0  0  0  0  0  0  0  0  0  0  0  0
    2.4929    0.3867   -2.2560 S   0  0  0  0  0  0  0  0  0  0  0  0
    4.6966   -0.3474   -0.7855 N   0  0  0  0  0  0  0  0  0  0  0  0
    4.9302   -1.2397   -1.5407 O   0  0  0  0  0  0  0  0  0  0  0  0
    5.4022   -0.1761    0.1638 O   0  0  0  0  0  0  0  0  0  0  0  0
   -1.5491    3.0698   -2.5583 H   0  0  0  0  0  0  0  0  0  0  0  0
   -0.7733    4.5909   -0.0839 H   0  0  0  0  0  0  0  0  0  0  0  0
   -1.2635    4.2723    2.3255 H   0  0  0  0  0  0  0  0  0  0  0  0
   -1.8753    2.0431    3.1934 H   0  0  0  0  0  0  0  0  0  0  0  0
   -2.2875   -0.2719    2.8801 H   0  0  0  0  0  0  0  0  0  0  0  0
   -2.9637   -0.6957    1.2679 H   0  0  0  0  0  0  0  0  0  0  0  0
    0.0106   -0.7669    1.8967 H   0  0  0  0  0  0  0  0  0  0  0  0
    1.1691   -2.0976    0.2450 H   0  0  0  0  0  0  0  0  0  0  0  0
    1.2604   -4.1694   -1.0877 H   0  0  0  0  0  0  0  0  0  0  0  0
   -0.7330   -5.6316   -1.2579 H   0  0  0  0  0  0  0  0  0  0  0  0
   -2.8331   -5.0062   -0.0993 H   0  0  0  0  0  0  0  0  0  0  0  0
   -2.9571   -2.9251    1.2162 H   0  0  0  0  0  0  0  0  0  0  0  0
   -1.4624    0.3994   -0.7654 H   0  0  0  0  0  0  0  0  0  0  0  0
    1.5112    2.9820   -0.0914 H   0  0  0  0  0  0  0  0  0  0  0  0
    3.6648    1.8221    0.7436 H   0  0  0  0  0  0  0  0  0  0  0  0
  2  1  2  0  0  0  0
  3  2  1  0  0  0  0
  3 26  1  0  0  0  0
  4  3  1  0  0  0  0
  5  4  2  0  0  0  0
  5 27  1  0  0  0  0
  6  5  1  0  0  0  0
  6 28  1  0  0  0  0
  7  6  2  0  0  0  0
  7 29  1  0  0  0  0
  8  7  1  0  0  0  0
  9  8  1  0  0  0  0
  9 30  1  0  0  0  0
  9 31  1  0  0  0  0
 10  9  1  0  0  0  0
 10 32  1  0  0  0  0
 11 10  1  0  0  0  0
 12 11  2  0  0  0  0
 12 33  1  0  0  0  0
 13 12  1  0  0  0  0
 13 34  1  0  0  0  0
 14 13  2  0  0  0  0
 14 35  1  0  0  0  0
 15 14  1  0  0  0  0
 15 36  1  0  0  0  0
 16 15  2  0  0  0  0
 16 11  1  0  0  0  0
 16 37  1  0  0  0  0
 17  8  2  0  0  0  0
 17  4  1  0  0  0  0
 17 38  1  0  0  0  0
 18  2  1  0  0  0  0
 19 18  2  0  0  0  0
 19 39  1  0  0  0  0
 20 19  1  0  0  0  0
 20 40  1  0  0  0  0
 21 20  2  0  0  0  0
 22 21  1  0  0  0  0
 22 18  1  0  0  0  0
 23 21  1  0  0  0  0
 24 23  2  0  0  0  0
 25 23  2  0  0  0  0
M  END
>  <MOL Chiral Flag>
0

>  <energy>
70.115522389745351

$$$$
