>1.sdf
 OpenBabel10042211333D

 43 47  0  0  0  0  0  0  0  0999 V2000
    5.6525    1.5092    0.7691 C   0  0  0  0  0  0  0  0  0  0  0  0
    4.5765    2.2483    1.3345 O   0  0  0  0  0  0  0  0  0  0  0  0
    3.3328    1.8617    0.9176 C   0  0  0  0  0  0  0  0  0  0  0  0
    2.9668    0.5536    0.6041 C   0  0  0  0  0  0  0  0  0  0  0  0
    1.6738    0.2313    0.2051 C   0  0  0  0  0  0  0  0  0  0  0  0
    1.4027   -1.0585   -0.0188 N   0  0  0  0  0  0  0  0  0  0  0  0
    0.1529   -1.4202   -0.4002 C   0  0  0  0  0  0  0  0  0  0  0  0
   -0.8549   -0.4895   -0.6360 C   0  0  0  0  0  0  0  0  0  0  0  0
   -2.1395   -1.0144   -1.1693 C   0  0  0  0  0  0  0  0  0  0  0  0
   -3.1835   -0.3759   -1.1774 O   0  0  0  0  0  0  0  0  0  0  0  0
   -2.1451   -2.4345   -1.7243 C   0  0  0  0  0  0  0  0  0  0  0  0
   -2.9036   -2.7655   -2.6217 O   0  0  0  0  0  0  0  0  0  0  0  0
   -1.2080   -3.3895   -1.1134 C   0  0  0  0  0  0  0  0  0  0  0  0
   -0.1054   -2.8695   -0.4270 C   0  0  0  0  0  0  0  0  0  0  0  0
    0.6887   -3.7835    0.2868 C   0  0  0  0  0  0  0  0  0  0  0  0
    0.3992   -5.1536    0.2958 C   0  0  0  0  0  0  0  0  0  0  0  0
   -0.6704   -5.6496   -0.4465 C   0  0  0  0  0  0  0  0  0  0  0  0
   -1.4714   -4.7666   -1.1683 C   0  0  0  0  0  0  0  0  0  0  0  0
   -0.6215    0.8596   -0.2894 C   0  0  0  0  0  0  0  0  0  0  0  0
   -1.7338    1.8137   -0.1269 C   0  0  0  0  0  0  0  0  0  0  0  0
   -2.3308    1.9134    1.1444 C   0  0  0  0  0  0  0  0  0  0  0  0
   -3.4134    2.7577    1.3694 C   0  0  0  0  0  0  0  0  0  0  0  0
   -3.9140    3.5209    0.3201 C   0  0  0  0  0  0  0  0  0  0  0  0
   -5.2693    4.5419    0.5954 Cl  0  0  0  0  0  0  0  0  0  0  0  0
   -3.3213    3.4581   -0.9429 C   0  0  0  0  0  0  0  0  0  0  0  0
   -2.2315    2.6076   -1.1664 C   0  0  0  0  0  0  0  0  0  0  0  0
    0.6955    1.2423    0.1104 C   0  0  0  0  0  0  0  0  0  0  0  0
    1.0751    2.5643    0.4516 C   0  0  0  0  0  0  0  0  0  0  0  0
    2.3756    2.8651    0.8641 C   0  0  0  0  0  0  0  0  0  0  0  0
    5.5339    1.3783   -0.3135 H   0  0  0  0  0  0  0  0  0  0  0  0
    5.7621    0.5426    1.2692 H   0  0  0  0  0  0  0  0  0  0  0  0
    6.5678    2.0794    0.9397 H   0  0  0  0  0  0  0  0  0  0  0  0
    3.6855   -0.2557    0.7002 H   0  0  0  0  0  0  0  0  0  0  0  0
    1.5250   -3.4236    0.8853 H   0  0  0  0  0  0  0  0  0  0  0  0
    1.0062   -5.8278    0.8988 H   0  0  0  0  0  0  0  0  0  0  0  0
   -0.8926   -6.7153   -0.4463 H   0  0  0  0  0  0  0  0  0  0  0  0
   -2.3219   -5.1445   -1.7296 H   0  0  0  0  0  0  0  0  0  0  0  0
   -1.9582    1.3073    1.9688 H   0  0  0  0  0  0  0  0  0  0  0  0
   -3.8643    2.7981    2.3567 H   0  0  0  0  0  0  0  0  0  0  0  0
   -3.7188    4.0614   -1.7535 H   0  0  0  0  0  0  0  0  0  0  0  0
   -1.8059    2.5479   -2.1622 H   0  0  0  0  0  0  0  0  0  0  0  0
    0.3624    3.3881    0.4129 H   0  0  0  0  0  0  0  0  0  0  0  0
    2.6441    3.8859    1.1339 H   0  0  0  0  0  0  0  0  0  0  0  0
  1 30  1  0  0  0  0
  1 31  1  0  0  0  0
  1 32  1  0  0  0  0
  2  1  1  0  0  0  0
  3  2  1  0  0  0  0
  4  3  2  0  0  0  0
  4 33  1  0  0  0  0
  5  4  1  0  0  0  0
  6  5  2  0  0  0  0
  7  6  1  0  0  0  0
  8  7  2  0  0  0  0
  9  8  1  0  0  0  0
 10  9  2  0  0  0  0
 11  9  1  0  0  0  0
 12 11  2  0  0  0  0
 13 11  1  0  0  0  0
 14 13  2  0  0  0  0
 14  7  1  0  0  0  0
 15 14  1  0  0  0  0
 15 34  1  0  0  0  0
 16 15  2  0  0  0  0
 16 35  1  0  0  0  0
 17 16  1  0  0  0  0
 17 36  1  0  0  0  0
 18 17  2  0  0  0  0
 18 13  1  0  0  0  0
 18 37  1  0  0  0  0
 19  8  1  0  0  0  0
 20 19  1  0  0  0  0
 21 20  2  0  0  0  0
 21 38  1  0  0  0  0
 22 21  1  0  0  0  0
 22 39  1  0  0  0  0
 23 22  2  0  0  0  0
 24 23  1  0  0  0  0
 25 23  1  0  0  0  0
 25 40  1  0  0  0  0
 26 25  2  0  0  0  0
 26 20  1  0  0  0  0
 26 41  1  0  0  0  0
 27 19  2  0  0  0  0
 27  5  1  0  0  0  0
 28 27  1  0  0  0  0
 28 42  1  0  0  0  0
 29 28  2  0  0  0  0
 29  3  1  0  0  0  0
 29 43  1  0  0  0  0
M  END
>  <energy>
125.29852551863594

$$$$
