>119.sdf
 OpenBabel10052218363D

 43 46  0  0  0  0  0  0  0  0999 V2000
    1.2814   -5.5412    0.8846 C   0  0  0  0  0  0  0  0  0  0  0  0
    0.4040   -4.6036    1.3989 O   0  0  0  0  0  0  0  0  0  0  0  0
    0.5739   -3.2572    1.3053 C   0  0  0  0  0  0  0  0  0  0  0  0
    1.7507   -2.6960    0.7826 C   0  0  0  0  0  0  0  0  0  0  0  0
    1.8745   -1.3192    0.6538 C   0  0  0  0  0  0  0  0  0  0  0  0
    0.8264   -0.4558    1.0284 C   0  0  0  0  0  0  0  0  0  0  0  0
   -0.3417   -1.0141    1.5827 C   0  0  0  0  0  0  0  0  0  0  0  0
   -0.4615   -2.4062    1.7209 C   0  0  0  0  0  0  0  0  0  0  0  0
    0.9852    1.0124    0.7570 C   0  0  0  0  0  0  0  0  0  0  0  0
   -0.0286    1.8373    0.1545 C   0  0  0  0  0  0  0  0  0  0  0  0
   -1.3451    1.3638   -0.1976 N   0  0  0  0  0  0  0  0  0  0  0  0
   -1.7092    0.0989   -0.7587 C   0  0  0  0  0  0  0  0  0  0  0  0
   -0.7851   -0.7359   -1.4174 C   0  0  0  0  0  0  0  0  0  0  0  0
   -1.1954   -1.9730   -1.9296 C   0  0  0  0  0  0  0  0  0  0  0  0
   -2.5278   -2.3785   -1.8084 C   0  0  0  0  0  0  0  0  0  0  0  0
   -2.9214   -3.5787   -2.3009 F   0  0  0  0  0  0  0  0  0  0  0  0
   -3.4566   -1.5434   -1.1868 C   0  0  0  0  0  0  0  0  0  0  0  0
   -3.0524   -0.3110   -0.6713 C   0  0  0  0  0  0  0  0  0  0  0  0
    0.2881    3.2039   -0.0922 C   0  0  0  0  0  0  0  0  0  0  0  0
    1.5562    3.6963    0.2906 C   0  0  0  0  0  0  0  0  0  0  0  0
    2.4376    2.9076    0.8749 O   0  0  0  0  0  0  0  0  0  0  0  0
    2.2186    1.6253    1.1089 C   0  0  0  0  0  0  0  0  0  0  0  0
    3.0905    0.9855    1.6711 O   0  0  0  0  0  0  0  0  0  0  0  0
    1.9075    5.0268    0.0389 C   0  0  0  0  0  0  0  0  0  0  0  0
    1.0202    5.8776   -0.6157 C   0  0  0  0  0  0  0  0  0  0  0  0
   -0.2279    5.4061   -1.0180 C   0  0  0  0  0  0  0  0  0  0  0  0
   -0.6009    4.0839   -0.7574 C   0  0  0  0  0  0  0  0  0  0  0  0
    1.3823   -5.4062   -0.2155 H   0  0  0  0  0  0  0  0  0  0  0  0
    0.8870   -6.5592    1.0753 H   0  0  0  0  0  0  0  0  0  0  0  0
    2.2781   -5.4521    1.3673 H   0  0  0  0  0  0  0  0  0  0  0  0
    2.5711   -3.3169    0.4504 H   0  0  0  0  0  0  0  0  0  0  0  0
    2.7795   -0.9282    0.2075 H   0  0  0  0  0  0  0  0  0  0  0  0
   -1.1624   -0.3791    1.8907 H   0  0  0  0  0  0  0  0  0  0  0  0
   -1.3722   -2.8270    2.1281 H   0  0  0  0  0  0  0  0  0  0  0  0
   -2.1254    2.0156   -0.0326 H   0  0  0  0  0  0  0  0  0  0  0  0
    0.2460   -0.4359   -1.5346 H   0  0  0  0  0  0  0  0  0  0  0  0
   -0.4791   -2.6182   -2.4206 H   0  0  0  0  0  0  0  0  0  0  0  0
   -4.4912   -1.8509   -1.0985 H   0  0  0  0  0  0  0  0  0  0  0  0
   -3.7839    0.3227   -0.1844 H   0  0  0  0  0  0  0  0  0  0  0  0
    2.8807    5.3955    0.3392 H   0  0  0  0  0  0  0  0  0  0  0  0
    1.3056    6.9011   -0.8218 H   0  0  0  0  0  0  0  0  0  0  0  0
   -0.9076    6.0654   -1.5420 H   0  0  0  0  0  0  0  0  0  0  0  0
   -1.5695    3.7622   -1.1074 H   0  0  0  0  0  0  0  0  0  0  0  0
  1 28  1  0  0  0  0
  1 29  1  0  0  0  0
  1 30  1  0  0  0  0
  2  1  1  0  0  0  0
  3  2  1  0  0  0  0
  4  3  2  0  0  0  0
  4 31  1  0  0  0  0
  5  4  1  0  0  0  0
  5 32  1  0  0  0  0
  6  5  2  0  0  0  0
  7  6  1  0  0  0  0
  7 33  1  0  0  0  0
  8  7  2  0  0  0  0
  8  3  1  0  0  0  0
  8 34  1  0  0  0  0
  9  6  1  0  0  0  0
 10  9  2  0  0  0  0
 11 10  1  0  0  0  0
 11 35  1  0  0  0  0
 12 11  1  0  0  0  0
 13 12  2  0  0  0  0
 13 36  1  0  0  0  0
 14 13  1  0  0  0  0
 14 37  1  0  0  0  0
 15 14  2  0  0  0  0
 16 15  1  0  0  0  0
 17 15  1  0  0  0  0
 17 38  1  0  0  0  0
 18 17  2  0  0  0  0
 18 12  1  0  0  0  0
 18 39  1  0  0  0  0
 19 10  1  0  0  0  0
 20 19  2  0  0  0  0
 21 20  1  0  0  0  0
 22 21  1  0  0  0  0
 22  9  1  0  0  0  0
 23 22  2  0  0  0  0
 24 20  1  0  0  0  0
 24 40  1  0  0  0  0
 25 24  2  0  0  0  0
 25 41  1  0  0  0  0
 26 25  1  0  0  0  0
 26 42  1  0  0  0  0
 27 26  2  0  0  0  0
 27 19  1  0  0  0  0
 27 43  1  0  0  0  0
M  END
>  <MOL Chiral Flag>
0

>  <energy>
107.34979266631002

$$$$
