>124.sdf
 OpenBabel10052218393D

 46 47  0  0  0  0  0  0  0  0999 V2000
   -4.9606   -0.3619    3.5018 C   0  0  0  0  0  0  0  0  0  0  0  0
   -4.0158    0.6426    3.5530 O   0  0  0  0  0  0  0  0  0  0  0  0
   -3.3368    1.1343    2.4827 C   0  0  0  0  0  0  0  0  0  0  0  0
   -2.3969    2.1507    2.6966 C   0  0  0  0  0  0  0  0  0  0  0  0
   -1.6726    2.6838    1.6270 C   0  0  0  0  0  0  0  0  0  0  0  0
   -1.8818    2.2074    0.3291 C   0  0  0  0  0  0  0  0  0  0  0  0
   -2.8200    1.1934    0.1030 C   0  0  0  0  0  0  0  0  0  0  0  0
   -3.5453    0.6561    1.1708 C   0  0  0  0  0  0  0  0  0  0  0  0
   -0.9350    2.8923   -1.0316 S   0  0  0  0  0  0  0  0  0  0  0  0
   -1.0376    4.4240   -1.0909 O   0  0  0  0  0  0  0  0  0  0  0  0
   -1.4347    2.4882   -2.4277 O   0  0  0  0  0  0  0  0  0  0  0  0
    0.7944    2.5659   -1.0352 N   0  0  0  0  0  0  0  0  0  0  0  0
    1.3405    1.2453   -1.1132 C   0  0  0  0  0  0  0  0  0  0  0  0
    0.5087    0.1229   -1.2769 C   0  0  0  0  0  0  0  0  0  0  0  0
    1.0427   -1.1799   -1.3523 C   0  0  0  0  0  0  0  0  0  0  0  0
    0.2416   -2.2554   -1.5862 O   0  0  0  0  0  0  0  0  0  0  0  0
   -1.1290   -2.2166   -1.7556 C   0  0  0  0  0  0  0  0  0  0  0  0
    2.4408   -1.3624   -1.2362 C   0  0  0  0  0  0  0  0  0  0  0  0
    3.0647   -2.6497   -1.3151 N   0  0  0  0  0  0  0  0  0  0  0  0
    2.6601   -3.7982   -0.6855 C   0  0  0  0  0  0  0  0  0  0  0  0
    3.2919   -4.8257   -0.8848 O   0  0  0  0  0  0  0  0  0  0  0  0
    1.5451   -3.8558    0.3345 C   0  0  0  0  0  0  0  0  0  0  0  0
    0.2911   -5.0165   -0.1751 Cl  0  0  0  0  0  0  0  0  0  0  0  0
    3.2688   -0.2379   -1.1133 C   0  0  0  0  0  0  0  0  0  0  0  0
    2.7342    1.0633   -1.0406 C   0  0  0  0  0  0  0  0  0  0  0  0
    3.5345    2.1562   -0.8983 O   0  0  0  0  0  0  0  0  0  0  0  0
    4.9113    2.1368   -0.8037 C   0  0  0  0  0  0  0  0  0  0  0  0
   -5.3420   -0.5516    4.5260 H   0  0  0  0  0  0  0  0  0  0  0  0
   -5.8136   -0.0564    2.8590 H   0  0  0  0  0  0  0  0  0  0  0  0
   -4.5052   -1.2990    3.1162 H   0  0  0  0  0  0  0  0  0  0  0  0
   -2.2263    2.5268    3.6976 H   0  0  0  0  0  0  0  0  0  0  0  0
   -0.9470    3.4666    1.8082 H   0  0  0  0  0  0  0  0  0  0  0  0
   -2.9869    0.8175   -0.8982 H   0  0  0  0  0  0  0  0  0  0  0  0
   -4.2624   -0.1280    0.9698 H   0  0  0  0  0  0  0  0  0  0  0  0
    1.4255    3.3725   -0.9248 H   0  0  0  0  0  0  0  0  0  0  0  0
   -0.5540    0.2594   -1.3634 H   0  0  0  0  0  0  0  0  0  0  0  0
   -1.6194   -1.8214   -0.8403 H   0  0  0  0  0  0  0  0  0  0  0  0
   -1.5012   -3.2455   -1.9364 H   0  0  0  0  0  0  0  0  0  0  0  0
   -1.3916   -1.5913   -2.6355 H   0  0  0  0  0  0  0  0  0  0  0  0
    3.9568   -2.6970   -1.8328 H   0  0  0  0  0  0  0  0  0  0  0  0
    1.0886   -2.8787    0.5719 H   0  0  0  0  0  0  0  0  0  0  0  0
    1.9732   -4.2204    1.2918 H   0  0  0  0  0  0  0  0  0  0  0  0
    4.3382   -0.3910   -1.0556 H   0  0  0  0  0  0  0  0  0  0  0  0
    5.2277    1.5559    0.0889 H   0  0  0  0  0  0  0  0  0  0  0  0
    5.3549    1.7012   -1.7243 H   0  0  0  0  0  0  0  0  0  0  0  0
    5.2802    3.1771   -0.6943 H   0  0  0  0  0  0  0  0  0  0  0  0
  1 28  1  0  0  0  0
  1 29  1  0  0  0  0
  1 30  1  0  0  0  0
  2  1  1  0  0  0  0
  3  2  1  0  0  0  0
  4  3  2  0  0  0  0
  4 31  1  0  0  0  0
  5  4  1  0  0  0  0
  5 32  1  0  0  0  0
  6  5  2  0  0  0  0
  7  6  1  0  0  0  0
  7 33  1  0  0  0  0
  8  7  2  0  0  0  0
  8  3  1  0  0  0  0
  8 34  1  0  0  0  0
  9  6  1  0  0  0  0
 10  9  2  0  0  0  0
 11  9  2  0  0  0  0
 12  9  1  0  0  0  0
 12 35  1  0  0  0  0
 13 12  1  0  0  0  0
 14 13  2  0  0  0  0
 14 36  1  0  0  0  0
 15 14  1  0  0  0  0
 16 15  1  0  0  0  0
 17 16  1  0  0  0  0
 17 37  1  0  0  0  0
 17 38  1  0  0  0  0
 17 39  1  0  0  0  0
 18 15  2  0  0  0  0
 19 18  1  0  0  0  0
 19 40  1  0  0  0  0
 20 19  1  0  0  0  0
 21 20  2  0  0  0  0
 22 20  1  0  0  0  0
 22 41  1  0  0  0  0
 22 42  1  0  0  0  0
 23 22  1  0  0  0  0
 24 18  1  0  0  0  0
 24 43  1  0  0  0  0
 25 24  2  0  0  0  0
 25 13  1  0  0  0  0
 26 25  1  0  0  0  0
 27 26  1  0  0  0  0
 27 44  1  0  0  0  0
 27 45  1  0  0  0  0
 27 46  1  0  0  0  0
M  END
>  <MOL Chiral Flag>
0

>  <energy>
48.617226896756932

$$$$
