>13.sdf
 OpenBabel10052217563D

 54 57  0  0  0  0  0  0  0  0999 V2000
    0.2843    6.1460    0.5360 C   0  0  0  0  0  0  0  0  0  0  0  0
    1.0966    4.9953    0.9074 N   0  0  0  0  0  0  0  0  0  0  0  0
    2.3313    5.2184    1.6509 C   0  0  0  0  0  0  0  0  0  0  0  0
    0.6990    3.6587    0.5227 C   0  0  0  0  0  0  0  0  0  0  0  0
    1.5599    2.5594    0.7225 C   0  0  0  0  0  0  0  0  0  0  0  0
    1.1996    1.2688    0.3048 C   0  0  0  0  0  0  0  0  0  0  0  0
    2.1105    0.2180    0.4490 C   0  0  0  0  0  0  0  0  0  0  0  0
    1.8000   -1.0659   -0.0060 C   0  0  0  0  0  0  0  0  0  0  0  0
    0.5393   -1.3235   -0.5928 C   0  0  0  0  0  0  0  0  0  0  0  0
    0.2429   -2.6349   -1.0069 C   0  0  0  0  0  0  0  0  0  0  0  0
    1.1773   -3.6593   -0.8673 C   0  0  0  0  0  0  0  0  0  0  0  0
    2.4563   -3.4060   -0.3278 C   0  0  0  0  0  0  0  0  0  0  0  0
    2.7462   -2.0965    0.1102 C   0  0  0  0  0  0  0  0  0  0  0  0
    3.4389   -4.4589   -0.2193 N   0  0  0  0  0  0  0  0  0  0  0  0
    3.0345   -5.8403   -0.4296 C   0  0  0  0  0  0  0  0  0  0  0  0
    4.8346   -4.1399   -0.4953 C   0  0  0  0  0  0  0  0  0  0  0  0
   -0.4012   -0.2726   -0.7345 C   0  0  0  0  0  0  0  0  0  0  0  0
   -1.6458   -0.5325   -1.3958 N   0  0  0  0  0  0  0  0  0  0  0  0
   -2.9248   -0.4125   -0.7732 C   0  0  0  0  0  0  0  0  0  0  0  0
   -4.0752   -0.6616   -1.5413 C   0  0  0  0  0  0  0  0  0  0  0  0
   -5.3434   -0.6078   -0.9617 C   0  0  0  0  0  0  0  0  0  0  0  0
   -5.4845   -0.3154    0.3997 C   0  0  0  0  0  0  0  0  0  0  0  0
   -6.7722   -0.2844    0.9896 N   0  0  0  0  0  0  0  0  0  0  0  0
   -4.3426   -0.0653    1.1761 C   0  0  0  0  0  0  0  0  0  0  0  0
   -3.0696   -0.1105    0.5953 C   0  0  0  0  0  0  0  0  0  0  0  0
   -0.0633    1.0374   -0.2956 C   0  0  0  0  0  0  0  0  0  0  0  0
   -0.9264    2.1322   -0.4842 C   0  0  0  0  0  0  0  0  0  0  0  0
   -0.5514    3.4191   -0.0900 C   0  0  0  0  0  0  0  0  0  0  0  0
    0.7320    7.1049    0.8721 H   0  0  0  0  0  0  0  0  0  0  0  0
   -0.7234    6.0705    0.9935 H   0  0  0  0  0  0  0  0  0  0  0  0
    0.1951    6.1954   -0.5709 H   0  0  0  0  0  0  0  0  0  0  0  0
    3.2044    4.8689    1.0615 H   0  0  0  0  0  0  0  0  0  0  0  0
    2.2870    4.6770    2.6199 H   0  0  0  0  0  0  0  0  0  0  0  0
    2.4990    6.2923    1.8778 H   0  0  0  0  0  0  0  0  0  0  0  0
    2.5325    2.7012    1.1748 H   0  0  0  0  0  0  0  0  0  0  0  0
    3.0812    0.4075    0.8982 H   0  0  0  0  0  0  0  0  0  0  0  0
   -0.7167   -2.8838   -1.4393 H   0  0  0  0  0  0  0  0  0  0  0  0
    0.8993   -4.6449   -1.2101 H   0  0  0  0  0  0  0  0  0  0  0  0
    3.7015   -1.8669    0.5591 H   0  0  0  0  0  0  0  0  0  0  0  0
    2.1378   -6.0753    0.1833 H   0  0  0  0  0  0  0  0  0  0  0  0
    2.8248   -6.0179   -1.5057 H   0  0  0  0  0  0  0  0  0  0  0  0
    3.8307   -6.5417   -0.1012 H   0  0  0  0  0  0  0  0  0  0  0  0
    5.4969   -4.9969   -0.2514 H   0  0  0  0  0  0  0  0  0  0  0  0
    4.9473   -3.9166   -1.5791 H   0  0  0  0  0  0  0  0  0  0  0  0
    5.2067   -3.2858    0.0974 H   0  0  0  0  0  0  0  0  0  0  0  0
   -1.6097   -1.0355   -2.2940 H   0  0  0  0  0  0  0  0  0  0  0  0
   -3.9838   -0.9027   -2.5929 H   0  0  0  0  0  0  0  0  0  0  0  0
   -6.2166   -0.8047   -1.5717 H   0  0  0  0  0  0  0  0  0  0  0  0
   -7.6118   -0.4752    0.4224 H   0  0  0  0  0  0  0  0  0  0  0  0
   -6.8845   -0.0877    1.9946 H   0  0  0  0  0  0  0  0  0  0  0  0
   -4.4410    0.1536    2.2317 H   0  0  0  0  0  0  0  0  0  0  0  0
   -2.2042    0.0664    1.2198 H   0  0  0  0  0  0  0  0  0  0  0  0
   -1.8893    2.0075   -0.9595 H   0  0  0  0  0  0  0  0  0  0  0  0
   -1.2464    4.2252   -0.2728 H   0  0  0  0  0  0  0  0  0  0  0  0
  1 29  1  0  0  0  0
  1 30  1  0  0  0  0
  1 31  1  0  0  0  0
  2  1  1  0  0  0  0
  3  2  1  0  0  0  0
  3 32  1  0  0  0  0
  3 33  1  0  0  0  0
  3 34  1  0  0  0  0
  4  2  1  0  0  0  0
  5  4  2  0  0  0  0
  5 35  1  0  0  0  0
  6  5  1  0  0  0  0
  7  6  2  0  0  0  0
  7 36  1  0  0  0  0
  8  7  1  0  0  0  0
  9  8  2  0  0  0  0
 10  9  1  0  0  0  0
 10 37  1  0  0  0  0
 11 10  2  0  0  0  0
 11 38  1  0  0  0  0
 12 11  1  0  0  0  0
 13 12  2  0  0  0  0
 13  8  1  0  0  0  0
 13 39  1  0  0  0  0
 14 12  1  0  0  0  0
 15 14  1  0  0  0  0
 15 40  1  0  0  0  0
 15 41  1  0  0  0  0
 15 42  1  0  0  0  0
 16 14  1  0  0  0  0
 16 43  1  0  0  0  0
 16 44  1  0  0  0  0
 16 45  1  0  0  0  0
 17  9  1  0  0  0  0
 18 17  1  0  0  0  0
 18 46  1  0  0  0  0
 19 18  1  0  0  0  0
 20 19  2  0  0  0  0
 20 47  1  0  0  0  0
 21 20  1  0  0  0  0
 21 48  1  0  0  0  0
 22 21  2  0  0  0  0
 23 22  1  0  0  0  0
 23 49  1  0  0  0  0
 23 50  1  0  0  0  0
 24 22  1  0  0  0  0
 24 51  1  0  0  0  0
 25 24  2  0  0  0  0
 25 19  1  0  0  0  0
 25 52  1  0  0  0  0
 26 17  2  0  0  0  0
 26  6  1  0  0  0  0
 27 26  1  0  0  0  0
 27 53  1  0  0  0  0
 28 27  2  0  0  0  0
 28  4  1  0  0  0  0
 28 54  1  0  0  0  0
M  END
>  <MOL Chiral Flag>
0

>  <energy>
76.135508122829393

$$$$
