>132_2.sdf
 OpenBabel10102212443D

 56 60  0  0  0  0  0  0  0  0999 V2000
    0.2415    1.1823    1.7575 O   0  0  0  0  0  0  0  0  0  0  0  0
    0.1623    2.4124    1.0747 C   0  0  2  0  0  0  0  0  0  0  0  0
   -1.2993    2.9217    1.1004 C   0  0  0  0  0  0  0  0  0  0  0  0
   -2.1532    1.8730    0.7827 O   0  0  0  0  0  0  0  0  0  0  0  0
   -3.2199    1.7990   -0.0616 C   0  0  0  0  0  0  0  0  0  0  0  0
   -3.7369    2.9120   -0.7459 C   0  0  0  0  0  0  0  0  0  0  0  0
   -4.8596    2.7472   -1.5715 C   0  0  0  0  0  0  0  0  0  0  0  0
   -5.3215    3.7050   -2.1650 O   0  0  0  0  0  0  0  0  0  0  0  0
   -5.4322    1.5539   -1.7091 O   0  0  0  0  0  0  0  0  0  0  0  0
   -4.9825    0.4705   -1.0838 C   0  0  0  0  0  0  0  0  0  0  0  0
   -5.6330   -0.7580   -1.2632 C   0  0  0  0  0  0  0  0  0  0  0  0
   -5.1692   -1.9016   -0.6056 C   0  0  0  0  0  0  0  0  0  0  0  0
   -4.0549   -1.8250    0.2338 C   0  0  0  0  0  0  0  0  0  0  0  0
   -3.3984   -0.6053    0.4222 C   0  0  0  0  0  0  0  0  0  0  0  0
   -3.8555    0.5540   -0.2344 C   0  0  0  0  0  0  0  0  0  0  0  0
    0.7116    2.3068   -0.3640 C   0  0  0  0  0  0  0  0  0  0  0  0
    1.8571    1.4069   -0.4647 N   0  0  0  0  0  0  0  0  0  0  0  0
    1.8303    0.2461   -1.1621 C   0  0  0  0  0  0  0  0  0  0  0  0
    0.8575   -0.1557   -1.7848 O   0  0  0  0  0  0  0  0  0  0  0  0
    3.1179   -0.4396   -1.0447 C   0  0  0  0  0  0  0  0  0  0  0  0
    3.4643   -1.5806   -1.5355 N   0  0  0  0  0  0  0  0  0  0  0  0
    2.5774   -2.3477   -2.2575 N   0  0  0  0  0  0  0  0  0  0  0  0
    1.5436   -3.0439   -1.6880 C   0  0  0  0  0  0  0  0  0  0  0  0
    0.7378   -3.5759   -2.4408 O   0  0  0  0  0  0  0  0  0  0  0  0
    1.3157   -3.1952   -0.1997 C   0  0  0  0  0  0  0  0  0  0  0  0
    2.2931   -2.9183    0.7844 C   0  0  0  0  0  0  0  0  0  0  0  0
    1.9965   -3.1051    2.1373 C   0  0  0  0  0  0  0  0  0  0  0  0
    0.7755   -3.5589    2.5172 N   0  0  0  0  0  0  0  0  0  0  0  0
   -0.1856   -3.8478    1.6044 C   0  0  0  0  0  0  0  0  0  0  0  0
    0.0648   -3.6768    0.2416 C   0  0  0  0  0  0  0  0  0  0  0  0
    3.9374    0.4345   -0.2175 C   0  0  0  0  0  0  0  0  0  0  0  0
    5.2507    0.2969    0.2207 C   0  0  0  0  0  0  0  0  0  0  0  0
    5.7888    1.3127    1.0255 C   0  0  0  0  0  0  0  0  0  0  0  0
    5.0058    2.4371    1.3729 C   0  0  0  0  0  0  0  0  0  0  0  0
    3.6738    2.5550    0.9172 C   0  0  0  0  0  0  0  0  0  0  0  0
    3.1555    1.5307    0.1179 C   0  0  0  0  0  0  0  0  0  0  0  0
   -0.1329    0.4765    1.1664 H   0  0  0  0  0  0  0  0  0  0  0  0
    0.8151    3.1304    1.6126 H   0  0  0  0  0  0  0  0  0  0  0  0
   -1.5299    3.2078    2.1474 H   0  0  0  0  0  0  0  0  0  0  0  0
   -1.4250    3.8219    0.4649 H   0  0  0  0  0  0  0  0  0  0  0  0
   -3.2984    3.8933   -0.6435 H   0  0  0  0  0  0  0  0  0  0  0  0
   -6.4988   -0.8269   -1.9103 H   0  0  0  0  0  0  0  0  0  0  0  0
   -5.6745   -2.8491   -0.7456 H   0  0  0  0  0  0  0  0  0  0  0  0
   -3.6992   -2.7128    0.7413 H   0  0  0  0  0  0  0  0  0  0  0  0
   -2.5384   -0.5702    1.0786 H   0  0  0  0  0  0  0  0  0  0  0  0
   -0.1069    1.9055   -0.9984 H   0  0  0  0  0  0  0  0  0  0  0  0
    0.9586    3.3150   -0.7633 H   0  0  0  0  0  0  0  0  0  0  0  0
    2.6575   -2.3357   -3.2849 H   0  0  0  0  0  0  0  0  0  0  0  0
    3.2852   -2.5877    0.5440 H   0  0  0  0  0  0  0  0  0  0  0  0
    2.7480   -2.8975    2.8877 H   0  0  0  0  0  0  0  0  0  0  0  0
   -1.1478   -4.2149    1.9362 H   0  0  0  0  0  0  0  0  0  0  0  0
   -0.7204   -3.9158   -0.4648 H   0  0  0  0  0  0  0  0  0  0  0  0
    5.8414   -0.5691   -0.0516 H   0  0  0  0  0  0  0  0  0  0  0  0
    6.8094    1.2314    1.3797 H   0  0  0  0  0  0  0  0  0  0  0  0
    5.4362    3.2125    1.9937 H   0  0  0  0  0  0  0  0  0  0  0  0
    3.0827    3.4183    1.1838 H   0  0  0  0  0  0  0  0  0  0  0  0
  1 37  1  0  0  0  0
  2  1  1  0  0  0  0
  2 38  1  1  0  0  0
  3  2  1  0  0  0  0
  3 39  1  0  0  0  0
  3 40  1  0  0  0  0
  4  3  1  0  0  0  0
  5  4  1  0  0  0  0
  6  5  2  0  0  0  0
  6 41  1  0  0  0  0
  7  6  1  0  0  0  0
  8  7  2  0  0  0  0
  9  7  1  0  0  0  0
 10  9  1  0  0  0  0
 11 10  2  0  0  0  0
 11 42  1  0  0  0  0
 12 11  1  0  0  0  0
 12 43  1  0  0  0  0
 13 12  2  0  0  0  0
 13 44  1  0  0  0  0
 14 13  1  0  0  0  0
 14 45  1  0  0  0  0
 15 14  2  0  0  0  0
 15  5  1  0  0  0  0
 15 10  1  0  0  0  0
 16  2  1  0  0  0  0
 16 46  1  0  0  0  0
 16 47  1  0  0  0  0
 17 16  1  0  0  0  0
 18 17  1  0  0  0  0
 19 18  2  0  0  0  0
 20 18  1  0  0  0  0
 21 20  2  0  0  0  0
 22 21  1  0  0  0  0
 22 48  1  0  0  0  0
 23 22  1  0  0  0  0
 24 23  2  0  0  0  0
 25 23  1  0  0  0  0
 26 25  2  0  0  0  0
 26 49  1  0  0  0  0
 27 26  1  0  0  0  0
 27 50  1  0  0  0  0
 28 27  2  0  0  0  0
 29 28  1  0  0  0  0
 29 51  1  0  0  0  0
 30 29  2  0  0  0  0
 30 25  1  0  0  0  0
 30 52  1  0  0  0  0
 31 20  1  0  0  0  0
 32 31  2  0  0  0  0
 32 53  1  0  0  0  0
 33 32  1  0  0  0  0
 33 54  1  0  0  0  0
 34 33  2  0  0  0  0
 34 55  1  0  0  0  0
 35 34  1  0  0  0  0
 35 56  1  0  0  0  0
 36 35  2  0  0  0  0
 36 17  1  0  0  0  0
 36 31  1  0  0  0  0
M  END
>  <MOL Chiral Flag>
0

>  <energy>
185.47965871128943

$$$$
