>133.sdf
 OpenBabel10052218433D

 33 35  0  0  0  0  0  0  0  0999 V2000
   -0.6007    4.7052    0.8978 O   0  0  0  0  0  0  0  0  0  0  0  0
    0.6723    4.3174    0.6793 C   0  0  0  0  0  0  0  0  0  0  0  0
    1.5442    5.1658    0.7005 O   0  0  0  0  0  0  0  0  0  0  0  0
    0.9740    2.8690    0.4064 C   0  0  0  0  0  0  0  0  0  0  0  0
   -0.1231    1.9851    0.3961 C   0  0  0  0  0  0  0  0  0  0  0  0
    0.0503    0.6241    0.1382 C   0  0  0  0  0  0  0  0  0  0  0  0
   -1.1243   -0.2805    0.1469 C   0  0  0  0  0  0  0  0  0  0  0  0
   -1.0365   -1.5706   -0.2311 C   0  0  0  0  0  0  0  0  0  0  0  0
   -2.1724   -2.5470   -0.2559 C   0  0  0  0  0  0  0  0  0  0  0  0
   -3.3427   -2.4737    0.5610 C   0  0  0  0  0  0  0  0  0  0  0  0
   -3.6093   -1.2520    1.8020 Cl  0  0  0  0  0  0  0  0  0  0  0  0
   -4.3337   -3.4581    0.4408 C   0  0  0  0  0  0  0  0  0  0  0  0
   -4.1933   -4.5055   -0.4668 C   0  0  0  0  0  0  0  0  0  0  0  0
   -3.0520   -4.5930   -1.2576 C   0  0  0  0  0  0  0  0  0  0  0  0
   -2.0477   -3.6303   -1.1482 C   0  0  0  0  0  0  0  0  0  0  0  0
    1.2932    0.1387   -0.1022 N   0  0  0  0  0  0  0  0  0  0  0  0
    2.3945    0.9301   -0.0932 C   0  0  0  0  0  0  0  0  0  0  0  0
    3.6447    0.3481   -0.3315 C   0  0  0  0  0  0  0  0  0  0  0  0
    4.7975    1.1274   -0.3235 C   0  0  0  0  0  0  0  0  0  0  0  0
    4.7115    2.4948   -0.0804 C   0  0  0  0  0  0  0  0  0  0  0  0
    3.4730    3.0974    0.1586 C   0  0  0  0  0  0  0  0  0  0  0  0
    2.2809    2.3272    0.1606 C   0  0  0  0  0  0  0  0  0  0  0  0
   -1.1242    2.3542    0.5843 H   0  0  0  0  0  0  0  0  0  0  0  0
   -2.0702    0.1466    0.4326 H   0  0  0  0  0  0  0  0  0  0  0  0
   -0.0793   -1.9277   -0.6026 H   0  0  0  0  0  0  0  0  0  0  0  0
   -5.2173   -3.4147    1.0655 H   0  0  0  0  0  0  0  0  0  0  0  0
   -4.9679   -5.2570   -0.5490 H   0  0  0  0  0  0  0  0  0  0  0  0
   -2.9431   -5.4107   -1.9585 H   0  0  0  0  0  0  0  0  0  0  0  0
   -1.1705   -3.7204   -1.7781 H   0  0  0  0  0  0  0  0  0  0  0  0
    3.7217   -0.7158   -0.5202 H   0  0  0  0  0  0  0  0  0  0  0  0
    5.7614    0.6699   -0.5053 H   0  0  0  0  0  0  0  0  0  0  0  0
    5.6120    3.0958   -0.0747 H   0  0  0  0  0  0  0  0  0  0  0  0
    3.4888    4.1529    0.3403 H   0  0  0  0  0  0  0  0  0  0  0  0
  2  1  1  0  0  0  0
  3  2  2  0  0  0  0
  4  2  1  0  0  0  0
  5  4  2  0  0  0  0
  5 23  1  0  0  0  0
  6  5  1  0  0  0  0
  7  6  1  0  0  0  0
  7 24  1  0  0  0  0
  8  7  2  0  0  0  0
  8 25  1  0  0  0  0
  9  8  1  0  0  0  0
 10  9  2  0  0  0  0
 11 10  1  0  0  0  0
 12 10  1  0  0  0  0
 12 26  1  0  0  0  0
 13 12  2  0  0  0  0
 13 27  1  0  0  0  0
 14 13  1  0  0  0  0
 14 28  1  0  0  0  0
 15 14  2  0  0  0  0
 15  9  1  0  0  0  0
 15 29  1  0  0  0  0
 16  6  2  0  0  0  0
 17 16  1  0  0  0  0
 18 17  2  0  0  0  0
 18 30  1  0  0  0  0
 19 18  1  0  0  0  0
 19 31  1  0  0  0  0
 20 19  2  0  0  0  0
 20 32  1  0  0  0  0
 21 20  1  0  0  0  0
 21 33  1  0  0  0  0
 22 21  2  0  0  0  0
 22  4  1  0  0  0  0
 22 17  1  0  0  0  0
M  END
>  <MOL Chiral Flag>
0

>  <energy>
39.968096212190495

$$$$
