>134.sdf
 OpenBabel10052218433D

 33 35  0  0  0  0  0  0  0  0999 V2000
    3.4029   -2.5548   -0.8373 O   0  0  0  0  0  0  0  0  0  0  0  0
    3.7852   -1.2833   -0.5996 C   0  0  0  0  0  0  0  0  0  0  0  0
    4.9605   -1.0001   -0.7345 O   0  0  0  0  0  0  0  0  0  0  0  0
    2.7721   -0.2756   -0.1308 C   0  0  0  0  0  0  0  0  0  0  0  0
    1.4640   -0.7465    0.1064 C   0  0  0  0  0  0  0  0  0  0  0  0
    0.4654    0.1159    0.5798 C   0  0  0  0  0  0  0  0  0  0  0  0
   -0.9419   -0.2982    0.7529 C   0  0  0  0  0  0  0  0  0  0  0  0
   -1.5064   -1.2564   -0.0048 C   0  0  0  0  0  0  0  0  0  0  0  0
   -2.9709   -1.4862    0.0028 C   0  0  0  0  0  0  0  0  0  0  0  0
   -3.5798   -1.9153   -1.1865 C   0  0  0  0  0  0  0  0  0  0  0  0
   -4.9680   -2.0456   -1.2628 C   0  0  0  0  0  0  0  0  0  0  0  0
   -5.7600   -1.7779   -0.1430 C   0  0  0  0  0  0  0  0  0  0  0  0
   -7.5043   -1.9251   -0.2486 Cl  0  0  0  0  0  0  0  0  0  0  0  0
   -5.1614   -1.3816    1.0572 C   0  0  0  0  0  0  0  0  0  0  0  0
   -3.7737   -1.2246    1.1314 C   0  0  0  0  0  0  0  0  0  0  0  0
    0.7624    1.4143    0.8154 N   0  0  0  0  0  0  0  0  0  0  0  0
    1.9805    1.9408    0.5604 C   0  0  0  0  0  0  0  0  0  0  0  0
    2.1696    3.3137    0.7510 C   0  0  0  0  0  0  0  0  0  0  0  0
    3.3938    3.9023    0.4572 C   0  0  0  0  0  0  0  0  0  0  0  0
    4.4438    3.1226   -0.0191 C   0  0  0  0  0  0  0  0  0  0  0  0
    4.2788    1.7461   -0.2071 C   0  0  0  0  0  0  0  0  0  0  0  0
    3.0365    1.1221    0.0726 C   0  0  0  0  0  0  0  0  0  0  0  0
    1.2254   -1.7880   -0.0662 H   0  0  0  0  0  0  0  0  0  0  0  0
   -1.5687    0.3134    1.3933 H   0  0  0  0  0  0  0  0  0  0  0  0
   -0.9116   -1.7607   -0.7599 H   0  0  0  0  0  0  0  0  0  0  0  0
   -2.9806   -2.1021   -2.0698 H   0  0  0  0  0  0  0  0  0  0  0  0
   -5.4274   -2.3399   -2.1976 H   0  0  0  0  0  0  0  0  0  0  0  0
   -5.7720   -1.1801    1.9280 H   0  0  0  0  0  0  0  0  0  0  0  0
   -3.3333   -0.9061    2.0671 H   0  0  0  0  0  0  0  0  0  0  0  0
    1.3530    3.9285    1.1110 H   0  0  0  0  0  0  0  0  0  0  0  0
    3.5266    4.9680    0.5914 H   0  0  0  0  0  0  0  0  0  0  0  0
    5.3920    3.5881   -0.2537 H   0  0  0  0  0  0  0  0  0  0  0  0
    5.1268    1.2156   -0.5909 H   0  0  0  0  0  0  0  0  0  0  0  0
  2  1  1  0  0  0  0
  3  2  2  0  0  0  0
  4  2  1  0  0  0  0
  5  4  2  0  0  0  0
  5 23  1  0  0  0  0
  6  5  1  0  0  0  0
  7  6  1  0  0  0  0
  7 24  1  0  0  0  0
  8  7  2  0  0  0  0
  8 25  1  0  0  0  0
  9  8  1  0  0  0  0
 10  9  2  0  0  0  0
 10 26  1  0  0  0  0
 11 10  1  0  0  0  0
 11 27  1  0  0  0  0
 12 11  2  0  0  0  0
 13 12  1  0  0  0  0
 14 12  1  0  0  0  0
 14 28  1  0  0  0  0
 15 14  2  0  0  0  0
 15  9  1  0  0  0  0
 15 29  1  0  0  0  0
 16  6  2  0  0  0  0
 17 16  1  0  0  0  0
 18 17  2  0  0  0  0
 18 30  1  0  0  0  0
 19 18  1  0  0  0  0
 19 31  1  0  0  0  0
 20 19  2  0  0  0  0
 20 32  1  0  0  0  0
 21 20  1  0  0  0  0
 21 33  1  0  0  0  0
 22 21  2  0  0  0  0
 22  4  1  0  0  0  0
 22 17  1  0  0  0  0
M  END
>  <MOL Chiral Flag>
0

>  <energy>
33.733410830711485

$$$$
