>136.sdf
 OpenBabel10052218443D

 50 51  0  0  0  0  0  0  0  0999 V2000
   -1.5744   -2.7048   -0.1698 C   0  0  0  0  0  0  0  0  0  0  0  0
   -2.8526   -2.0773    0.2755 N   0  3  0  0  0  0  0  0  0  0  0  0
   -2.7516   -1.7583    1.7200 C   0  0  0  0  0  0  0  0  0  0  0  0
   -3.9491   -3.0717    0.1039 C   0  0  0  0  0  0  0  0  0  0  0  0
   -4.2725   -3.7763   -1.9172 I   0  0  0  0  0  0  0  0  0  0  0  0
   -3.1663   -0.8513   -0.5319 C   0  0  0  0  0  0  0  0  0  0  0  0
   -2.1458    0.3030   -0.3737 C   0  0  0  0  0  0  0  0  0  0  0  0
   -2.0117    1.1571   -1.6571 C   0  0  0  0  0  0  0  0  0  0  0  0
   -0.6952    1.9692   -1.7089 C   0  0  0  0  0  0  0  0  0  0  0  0
    0.4780    1.0081   -1.5603 C   0  0  0  0  0  0  0  0  0  0  0  0
    1.4656    1.0422   -0.6126 C   0  0  0  0  0  0  0  0  0  0  0  0
    1.5539    2.1228    0.4248 C   0  0  0  0  0  0  0  0  0  0  0  0
    2.8039    2.7350    0.6531 C   0  0  0  0  0  0  0  0  0  0  0  0
    2.9364    3.7575    1.5927 C   0  0  0  0  0  0  0  0  0  0  0  0
    1.8299    4.1774    2.3312 C   0  0  0  0  0  0  0  0  0  0  0  0
    0.5891    3.5678    2.1335 C   0  0  0  0  0  0  0  0  0  0  0  0
    0.4495    2.5476    1.1893 C   0  0  0  0  0  0  0  0  0  0  0  0
    2.5074   -0.0596   -0.5835 C   0  0  0  0  0  0  0  0  0  0  0  0
    2.8161   -0.8495   -1.7146 C   0  0  0  0  0  0  0  0  0  0  0  0
    3.7514   -1.8872   -1.6273 C   0  0  0  0  0  0  0  0  0  0  0  0
    4.3846   -2.1638   -0.4151 C   0  0  0  0  0  0  0  0  0  0  0  0
    4.0914   -1.4020    0.7120 C   0  0  0  0  0  0  0  0  0  0  0  0
    3.1670   -0.3574    0.6351 C   0  0  0  0  0  0  0  0  0  0  0  0
   -0.6762   -2.1322    0.1400 H   0  0  0  0  0  0  0  0  0  0  0  0
   -1.4373   -3.7121    0.2789 H   0  0  0  0  0  0  0  0  0  0  0  0
   -1.5346   -2.8106   -1.2763 H   0  0  0  0  0  0  0  0  0  0  0  0
   -1.9318   -1.0368    1.9267 H   0  0  0  0  0  0  0  0  0  0  0  0
   -2.5256   -2.6736    2.3136 H   0  0  0  0  0  0  0  0  0  0  0  0
   -3.7007   -1.3228    2.1021 H   0  0  0  0  0  0  0  0  0  0  0  0
   -3.7459   -3.9861    0.7067 H   0  0  0  0  0  0  0  0  0  0  0  0
   -4.9173   -2.6562    0.4591 H   0  0  0  0  0  0  0  0  0  0  0  0
   -3.1733   -1.1512   -1.5998 H   0  0  0  0  0  0  0  0  0  0  0  0
   -4.1856   -0.4552   -0.3177 H   0  0  0  0  0  0  0  0  0  0  0  0
   -1.1683   -0.1522   -0.2112 H   0  0  0  0  0  0  0  0  0  0  0  0
   -2.3608    0.9132    0.5289 H   0  0  0  0  0  0  0  0  0  0  0  0
   -1.9575    0.4663   -2.5279 H   0  0  0  0  0  0  0  0  0  0  0  0
   -2.9045    1.8026   -1.8004 H   0  0  0  0  0  0  0  0  0  0  0  0
   -0.7150    2.7931   -0.9810 H   0  0  0  0  0  0  0  0  0  0  0  0
   -0.6255    2.4487   -2.7083 H   0  0  0  0  0  0  0  0  0  0  0  0
    0.4688    0.1966   -2.2748 H   0  0  0  0  0  0  0  0  0  0  0  0
    3.6724    2.4289    0.0820 H   0  0  0  0  0  0  0  0  0  0  0  0
    3.8994    4.2278    1.7457 H   0  0  0  0  0  0  0  0  0  0  0  0
    1.9346    4.9706    3.0588 H   0  0  0  0  0  0  0  0  0  0  0  0
   -0.2661    3.8865    2.7153 H   0  0  0  0  0  0  0  0  0  0  0  0
   -0.5137    2.0818    1.0736 H   0  0  0  0  0  0  0  0  0  0  0  0
    2.3547   -0.6712   -2.6743 H   0  0  0  0  0  0  0  0  0  0  0  0
    3.9826   -2.4814   -2.5010 H   0  0  0  0  0  0  0  0  0  0  0  0
    5.1005   -2.9733   -0.3500 H   0  0  0  0  0  0  0  0  0  0  0  0
    4.5749   -1.6248    1.6556 H   0  0  0  0  0  0  0  0  0  0  0  0
    2.9468    0.1956    1.5371 H   0  0  0  0  0  0  0  0  0  0  0  0
  1 24  1  0  0  0  0
  1 25  1  0  0  0  0
  1 26  1  0  0  0  0
  2  1  1  0  0  0  0
  3  2  1  0  0  0  0
  3 27  1  0  0  0  0
  3 28  1  0  0  0  0
  3 29  1  0  0  0  0
  4  2  1  0  0  0  0
  4 30  1  0  0  0  0
  4 31  1  0  0  0  0
  5  4  1  0  0  0  0
  6  2  1  0  0  0  0
  6 32  1  0  0  0  0
  6 33  1  0  0  0  0
  7  6  1  0  0  0  0
  7 34  1  0  0  0  0
  7 35  1  0  0  0  0
  8  7  1  0  0  0  0
  8 36  1  0  0  0  0
  8 37  1  0  0  0  0
  9  8  1  0  0  0  0
  9 38  1  0  0  0  0
  9 39  1  0  0  0  0
 10  9  1  0  0  0  0
 10 40  1  0  0  0  0
 11 10  2  0  0  0  0
 12 11  1  0  0  0  0
 13 12  2  0  0  0  0
 13 41  1  0  0  0  0
 14 13  1  0  0  0  0
 14 42  1  0  0  0  0
 15 14  2  0  0  0  0
 15 43  1  0  0  0  0
 16 15  1  0  0  0  0
 16 44  1  0  0  0  0
 17 16  2  0  0  0  0
 17 12  1  0  0  0  0
 17 45  1  0  0  0  0
 18 11  1  0  0  0  0
 19 18  2  0  0  0  0
 19 46  1  0  0  0  0
 20 19  1  0  0  0  0
 20 47  1  0  0  0  0
 21 20  2  0  0  0  0
 21 48  1  0  0  0  0
 22 21  1  0  0  0  0
 22 49  1  0  0  0  0
 23 22  2  0  0  0  0
 23 18  1  0  0  0  0
 23 50  1  0  0  0  0
M  CHG  1   2   1
M  END
>  <MOL Chiral Flag>
0

>  <energy>
59.473445373788024

$$$$
