>137.sdf
 OpenBabel10052218443D

 30 31  0  0  0  0  0  0  0  0999 V2000
   -6.5391   -3.7837   -2.9881 Br  0  0  0  0  0  0  0  0  0  0  0  0
   -5.3145   -2.6860   -2.0163 C   0  0  0  0  0  0  0  0  0  0  0  0
   -4.0903   -2.3236   -2.5846 C   0  0  0  0  0  0  0  0  0  0  0  0
   -3.1835   -1.5316   -1.8679 C   0  0  0  0  0  0  0  0  0  0  0  0
   -3.4972   -1.0927   -0.5637 C   0  0  0  0  0  0  0  0  0  0  0  0
   -4.7435   -1.4616   -0.0113 C   0  0  0  0  0  0  0  0  0  0  0  0
   -5.6405   -2.2510   -0.7324 C   0  0  0  0  0  0  0  0  0  0  0  0
   -2.5507   -0.2812    0.2674 C   0  0  0  0  0  0  0  0  0  0  0  0
   -2.8940    0.0183    1.4036 O   0  0  0  0  0  0  0  0  0  0  0  0
   -1.1961    0.1534   -0.2031 C   0  0  0  0  0  0  0  0  0  0  0  0
   -0.3350    0.7272    0.6663 C   0  0  0  0  0  0  0  0  0  0  0  0
    1.0360    1.2184    0.3477 C   0  0  0  0  0  0  0  0  0  0  0  0
    1.8149    1.7042    1.4105 C   0  0  0  0  0  0  0  0  0  0  0  0
    3.0961    2.2076    1.1899 C   0  0  0  0  0  0  0  0  0  0  0  0
    3.6353    2.2428   -0.1067 C   0  0  0  0  0  0  0  0  0  0  0  0
    2.8636    1.7457   -1.1766 C   0  0  0  0  0  0  0  0  0  0  0  0
    1.5764    1.2360   -0.9538 C   0  0  0  0  0  0  0  0  0  0  0  0
    4.9408    2.7818   -0.3335 N   0  0  0  0  0  0  0  0  0  0  0  0
    5.5736    3.2319    0.5751 O   0  0  0  0  0  0  0  0  0  0  0  0
    5.3991    2.8124   -1.4352 O   0  0  0  0  0  0  0  0  0  0  0  0
   -3.8378   -2.6631   -3.5808 H   0  0  0  0  0  0  0  0  0  0  0  0
   -2.2456   -1.2821   -2.3373 H   0  0  0  0  0  0  0  0  0  0  0  0
   -5.0209   -1.1459    0.9868 H   0  0  0  0  0  0  0  0  0  0  0  0
   -6.5873   -2.5300   -0.2869 H   0  0  0  0  0  0  0  0  0  0  0  0
   -0.9046   -0.0023   -1.2304 H   0  0  0  0  0  0  0  0  0  0  0  0
   -0.6536    0.8433    1.6983 H   0  0  0  0  0  0  0  0  0  0  0  0
    1.4244    1.6961    2.4211 H   0  0  0  0  0  0  0  0  0  0  0  0
    3.6647    2.5766    2.0342 H   0  0  0  0  0  0  0  0  0  0  0  0
    3.2550    1.7608   -2.1859 H   0  0  0  0  0  0  0  0  0  0  0  0
    1.0135    0.8755   -1.8016 H   0  0  0  0  0  0  0  0  0  0  0  0
  2  1  1  0  0  0  0
  3  2  2  0  0  0  0
  3 21  1  0  0  0  0
  4  3  1  0  0  0  0
  4 22  1  0  0  0  0
  5  4  2  0  0  0  0
  6  5  1  0  0  0  0
  6 23  1  0  0  0  0
  7  6  2  0  0  0  0
  7  2  1  0  0  0  0
  7 24  1  0  0  0  0
  8  5  1  0  0  0  0
  9  8  2  0  0  0  0
 10  8  1  0  0  0  0
 10 25  1  0  0  0  0
 11 10  2  0  0  0  0
 11 26  1  0  0  0  0
 12 11  1  0  0  0  0
 13 12  2  0  0  0  0
 13 27  1  0  0  0  0
 14 13  1  0  0  0  0
 14 28  1  0  0  0  0
 15 14  2  0  0  0  0
 16 15  1  0  0  0  0
 16 29  1  0  0  0  0
 17 16  2  0  0  0  0
 17 12  1  0  0  0  0
 17 30  1  0  0  0  0
 18 15  1  0  0  0  0
 19 18  2  0  0  0  0
 20 18  2  0  0  0  0
M  END
>  <MOL Chiral Flag>
0

>  <energy>
110.77812498258429

$$$$
