>138.sdf
 OpenBabel10052218453D

 51 53  0  0  0  0  0  0  0  0999 V2000
   -4.4347   -2.6406   -1.7743 C   0  0  0  0  0  0  0  0  0  0  0  0
   -3.0477   -2.2871   -2.1038 N   0  3  1  0  0  0  0  0  0  0  0  0
   -2.9072   -1.7238   -3.4499 C   0  0  0  0  0  0  0  0  0  0  0  0
   -1.5223   -1.1131   -3.4164 C   0  0  0  0  0  0  0  0  0  0  0  0
   -1.5860   -0.3650   -2.1039 C   0  0  0  0  0  0  0  0  0  0  0  0
   -2.4459   -1.2706   -1.1970 C   0  0  2  0  0  0  0  0  0  0  0  0
   -1.7105   -1.9568   -0.0155 C   0  0  0  0  0  0  0  0  0  0  0  0
   -1.1030   -1.0085    1.0333 C   0  0  0  0  0  0  0  0  0  0  0  0
    0.1340   -0.4826    0.5841 O   0  0  0  0  0  0  0  0  0  0  0  0
    0.6176    0.6383    1.3362 C   0  0  2  0  0  0  0  0  0  0  0  0
    0.5271    0.3987    2.8774 C   0  0  0  0  0  0  0  0  0  0  0  0
   -0.1351    1.8827    0.8448 C   0  0  0  0  0  0  0  0  0  0  0  0
   -0.9688    2.6528    1.6882 C   0  0  0  0  0  0  0  0  0  0  0  0
   -1.6613    3.7560    1.1800 C   0  0  0  0  0  0  0  0  0  0  0  0
   -1.5327    4.1105   -0.1636 C   0  0  0  0  0  0  0  0  0  0  0  0
   -0.7036    3.3682   -1.0039 C   0  0  0  0  0  0  0  0  0  0  0  0
   -0.0087    2.2662   -0.5051 C   0  0  0  0  0  0  0  0  0  0  0  0
    2.1155    0.8137    1.0340 C   0  0  0  0  0  0  0  0  0  0  0  0
    2.8247   -0.1366    0.2654 C   0  0  0  0  0  0  0  0  0  0  0  0
    4.1875    0.0321    0.0059 C   0  0  0  0  0  0  0  0  0  0  0  0
    4.8641    1.1492    0.4996 C   0  0  0  0  0  0  0  0  0  0  0  0
    6.5738    1.3565    0.1653 Cl  0  0  0  0  0  0  0  0  0  0  0  0
    4.1786    2.0996    1.2591 C   0  0  0  0  0  0  0  0  0  0  0  0
    2.8163    1.9356    1.5297 C   0  0  0  0  0  0  0  0  0  0  0  0
   -4.8127   -3.4019   -2.4918 H   0  0  0  0  0  0  0  0  0  0  0  0
   -5.0973   -1.7494   -1.8144 H   0  0  0  0  0  0  0  0  0  0  0  0
   -4.4851   -3.0817   -0.7557 H   0  0  0  0  0  0  0  0  0  0  0  0
   -2.4694   -3.1633   -2.0861 H   0  0  0  0  0  0  0  0  0  0  0  0
   -3.6624   -0.9182   -3.6173 H   0  0  0  0  0  0  0  0  0  0  0  0
   -3.0170   -2.4896   -4.2493 H   0  0  0  0  0  0  0  0  0  0  0  0
   -1.2680   -0.4762   -4.2912 H   0  0  0  0  0  0  0  0  0  0  0  0
   -0.7767   -1.9341   -3.3292 H   0  0  0  0  0  0  0  0  0  0  0  0
   -2.1791    0.5581   -2.3072 H   0  0  0  0  0  0  0  0  0  0  0  0
   -0.5995   -0.0682   -1.7197 H   0  0  0  0  0  0  0  0  0  0  0  0
   -3.2320   -0.6165   -0.7492 H   0  0  0  0  0  0  0  0  0  0  0  0
   -0.9281   -2.6615   -0.3709 H   0  0  0  0  0  0  0  0  0  0  0  0
   -2.4879   -2.5508    0.5123 H   0  0  0  0  0  0  0  0  0  0  0  0
   -0.8962   -1.6372    1.9265 H   0  0  0  0  0  0  0  0  0  0  0  0
   -1.8480   -0.2215    1.2906 H   0  0  0  0  0  0  0  0  0  0  0  0
   -0.5143    0.2601    3.2329 H   0  0  0  0  0  0  0  0  0  0  0  0
    0.9472    1.2552    3.4464 H   0  0  0  0  0  0  0  0  0  0  0  0
    1.1035   -0.5103    3.1555 H   0  0  0  0  0  0  0  0  0  0  0  0
   -1.1011    2.4055    2.7305 H   0  0  0  0  0  0  0  0  0  0  0  0
   -2.3046    4.3348    1.8301 H   0  0  0  0  0  0  0  0  0  0  0  0
   -2.0745    4.9616   -0.5541 H   0  0  0  0  0  0  0  0  0  0  0  0
   -0.6005    3.6442   -2.0451 H   0  0  0  0  0  0  0  0  0  0  0  0
    0.6335    1.7065   -1.1727 H   0  0  0  0  0  0  0  0  0  0  0  0
    2.3344   -1.0164   -0.1295 H   0  0  0  0  0  0  0  0  0  0  0  0
    4.7176   -0.7082   -0.5797 H   0  0  0  0  0  0  0  0  0  0  0  0
    4.7015    2.9673    1.6412 H   0  0  0  0  0  0  0  0  0  0  0  0
    2.3046    2.6855    2.1186 H   0  0  0  0  0  0  0  0  0  0  0  0
  1 25  1  0  0  0  0
  1 26  1  0  0  0  0
  1 27  1  0  0  0  0
  2  1  1  0  0  0  0
  2 28  1  1  0  0  0
  3  2  1  0  0  0  0
  3 29  1  0  0  0  0
  3 30  1  0  0  0  0
  4  3  1  0  0  0  0
  4 31  1  0  0  0  0
  4 32  1  0  0  0  0
  5  4  1  0  0  0  0
  5 33  1  0  0  0  0
  5 34  1  0  0  0  0
  6  5  1  0  0  0  0
  6  2  1  0  0  0  0
  6 35  1  1  0  0  0
  7  6  1  0  0  0  0
  7 36  1  0  0  0  0
  7 37  1  0  0  0  0
  8  7  1  0  0  0  0
  8 38  1  0  0  0  0
  8 39  1  0  0  0  0
  9  8  1  0  0  0  0
 10  9  1  6  0  0  0
 11 10  1  0  0  0  0
 11 40  1  0  0  0  0
 11 41  1  0  0  0  0
 11 42  1  0  0  0  0
 12 10  1  0  0  0  0
 13 12  2  0  0  0  0
 13 43  1  0  0  0  0
 14 13  1  0  0  0  0
 14 44  1  0  0  0  0
 15 14  2  0  0  0  0
 15 45  1  0  0  0  0
 16 15  1  0  0  0  0
 16 46  1  0  0  0  0
 17 16  2  0  0  0  0
 17 12  1  0  0  0  0
 17 47  1  0  0  0  0
 18 10  1  0  0  0  0
 19 18  2  0  0  0  0
 19 48  1  0  0  0  0
 20 19  1  0  0  0  0
 20 49  1  0  0  0  0
 21 20  2  0  0  0  0
 22 21  1  0  0  0  0
 23 21  1  0  0  0  0
 23 50  1  0  0  0  0
 24 23  2  0  0  0  0
 24 18  1  0  0  0  0
 24 51  1  0  0  0  0
M  CHG  1   2   1
M  END
>  <MOL Chiral Flag>
0

>  <energy>
82.828051247253583

$$$$
