>139.sdf
 OpenBabel10052218453D

 47 50  0  0  0  0  0  0  0  0999 V2000
   -0.9556    1.0899   -2.7951 O   0  0  0  0  0  0  0  0  0  0  0  0
   -1.9334    0.1144   -2.5395 C   0  0  0  0  0  0  0  0  0  0  0  0
   -2.0612   -0.1883   -1.0260 C   0  0  1  0  0  0  0  0  0  0  0  0
   -2.4316    1.0900   -0.2083 C   0  0  0  0  0  0  0  0  0  0  0  0
   -1.3915    2.1200   -0.1621 N   0  0  0  0  0  0  0  0  0  0  0  0
   -0.2244    2.0727    0.5029 C   0  0  0  0  0  0  0  0  0  0  0  0
    0.4206    3.2734    0.3189 C   0  0  0  0  0  0  0  0  0  0  0  0
   -0.3438    4.0693   -0.4575 N   0  0  0  0  0  0  0  0  0  0  0  0
   -1.4457    3.3406   -0.7303 C   0  0  0  0  0  0  0  0  0  0  0  0
   -3.1996   -1.2444   -0.7687 C   0  0  0  0  0  0  0  0  0  0  0  0
   -2.6436   -2.0979    0.3322 C   0  0  0  0  0  0  0  0  0  0  0  0
   -1.2952   -1.9187    0.4882 C   0  0  0  0  0  0  0  0  0  0  0  0
   -0.5678   -2.6615    1.4265 C   0  0  0  0  0  0  0  0  0  0  0  0
   -1.2519   -3.5987    2.2167 C   0  0  0  0  0  0  0  0  0  0  0  0
   -2.6357   -3.7920    2.0455 C   0  0  0  0  0  0  0  0  0  0  0  0
   -3.3377   -3.0453    1.0863 C   0  0  0  0  0  0  0  0  0  0  0  0
   -0.8578   -0.8905   -0.4354 C   0  0  0  0  0  0  0  0  0  0  0  0
    0.3542   -0.6476   -0.7998 N   0  0  0  0  0  0  0  0  0  0  0  0
    1.3778   -1.3723   -0.3953 O   0  0  0  0  0  0  0  0  0  0  0  0
    2.6343   -1.0996   -0.8850 C   0  0  0  0  0  0  0  0  0  0  0  0
    3.2335    0.0496   -0.1292 C   0  0  0  0  0  0  0  0  0  0  0  0
    3.4344    1.2879   -0.7595 C   0  0  0  0  0  0  0  0  0  0  0  0
    3.9835    2.3568   -0.0457 C   0  0  0  0  0  0  0  0  0  0  0  0
    4.3463    2.1925    1.2944 C   0  0  0  0  0  0  0  0  0  0  0  0
    4.8831    3.2291    1.9831 F   0  0  0  0  0  0  0  0  0  0  0  0
    4.1557    0.9596    1.9249 C   0  0  0  0  0  0  0  0  0  0  0  0
    3.5949   -0.1090    1.2201 C   0  0  0  0  0  0  0  0  0  0  0  0
    3.4182   -1.3023    1.8431 F   0  0  0  0  0  0  0  0  0  0  0  0
   -0.1079    0.6183   -3.0015 H   0  0  0  0  0  0  0  0  0  0  0  0
   -1.7121   -0.8191   -3.1090 H   0  0  0  0  0  0  0  0  0  0  0  0
   -2.9020    0.4936   -2.9289 H   0  0  0  0  0  0  0  0  0  0  0  0
   -2.6932    0.8254    0.8403 H   0  0  0  0  0  0  0  0  0  0  0  0
   -3.3490    1.5201   -0.6703 H   0  0  0  0  0  0  0  0  0  0  0  0
    0.1237    1.2389    1.0982 H   0  0  0  0  0  0  0  0  0  0  0  0
    1.3765    3.5599    0.7349 H   0  0  0  0  0  0  0  0  0  0  0  0
   -2.2729    3.6987   -1.3304 H   0  0  0  0  0  0  0  0  0  0  0  0
   -3.3340   -1.9398   -1.6269 H   0  0  0  0  0  0  0  0  0  0  0  0
   -4.1773   -0.7666   -0.5420 H   0  0  0  0  0  0  0  0  0  0  0  0
    0.4937   -2.5155    1.5653 H   0  0  0  0  0  0  0  0  0  0  0  0
   -0.7136   -4.1754    2.9575 H   0  0  0  0  0  0  0  0  0  0  0  0
   -3.1585   -4.5204    2.6512 H   0  0  0  0  0  0  0  0  0  0  0  0
   -4.3991   -3.1968    0.9396 H   0  0  0  0  0  0  0  0  0  0  0  0
    2.5552   -0.8802   -1.9741 H   0  0  0  0  0  0  0  0  0  0  0  0
    3.2887   -1.9911   -0.7818 H   0  0  0  0  0  0  0  0  0  0  0  0
    3.1535    1.4281   -1.7961 H   0  0  0  0  0  0  0  0  0  0  0  0
    4.1260    3.3129   -0.5320 H   0  0  0  0  0  0  0  0  0  0  0  0
    4.4422    0.8312    2.9607 H   0  0  0  0  0  0  0  0  0  0  0  0
  1 29  1  0  0  0  0
  2  1  1  0  0  0  0
  2 30  1  0  0  0  0
  2 31  1  0  0  0  0
  3  2  1  6  0  0  0
  4  3  1  0  0  0  0
  4 32  1  0  0  0  0
  4 33  1  0  0  0  0
  5  4  1  0  0  0  0
  6  5  1  0  0  0  0
  6 34  1  0  0  0  0
  7  6  2  0  0  0  0
  7 35  1  0  0  0  0
  8  7  1  0  0  0  0
  9  8  2  0  0  0  0
  9  5  1  0  0  0  0
  9 36  1  0  0  0  0
 10  3  1  0  0  0  0
 10 37  1  0  0  0  0
 10 38  1  0  0  0  0
 11 10  1  0  0  0  0
 12 11  2  0  0  0  0
 13 12  1  0  0  0  0
 13 39  1  0  0  0  0
 14 13  2  0  0  0  0
 14 40  1  0  0  0  0
 15 14  1  0  0  0  0
 15 41  1  0  0  0  0
 16 15  2  0  0  0  0
 16 11  1  0  0  0  0
 16 42  1  0  0  0  0
 17 12  1  0  0  0  0
 17  3  1  0  0  0  0
 18 17  2  0  0  0  0
 19 18  1  0  0  0  0
 20 19  1  0  0  0  0
 20 43  1  0  0  0  0
 20 44  1  0  0  0  0
 21 20  1  0  0  0  0
 22 21  2  0  0  0  0
 22 45  1  0  0  0  0
 23 22  1  0  0  0  0
 23 46  1  0  0  0  0
 24 23  2  0  0  0  0
 25 24  1  0  0  0  0
 26 24  1  0  0  0  0
 26 47  1  0  0  0  0
 27 26  2  0  0  0  0
 27 21  1  0  0  0  0
 28 27  1  0  0  0  0
M  END
>  <MOL Chiral Flag>
0

>  <energy>
60.448317191076754

$$$$
