>146.sdf
 OpenBabel10052220043D

 39 41  0  0  0  0  0  0  0  0999 V2000
    3.6484   -1.3532    0.7809 C   0  0  0  0  0  0  0  0  0  0  0  0
    2.2224   -0.7833    0.6314 C   0  0  2  0  0  0  0  0  0  0  0  0
    1.3047   -1.6497   -0.1297 N   0  0  0  0  0  0  0  0  0  0  0  0
    1.7995   -2.8395   -0.8198 C   0  0  0  0  0  0  0  0  0  0  0  0
   -0.1035   -1.3612   -0.1298 C   0  0  0  0  0  0  0  0  0  0  0  0
   -0.9917   -2.2716   -0.6171 N   0  0  0  0  0  0  0  0  0  0  0  0
   -2.3318   -2.0624   -0.5656 C   0  0  0  0  0  0  0  0  0  0  0  0
   -2.8318   -0.8739   -0.0094 C   0  0  0  0  0  0  0  0  0  0  0  0
   -4.2093   -0.5633    0.1001 C   0  0  0  0  0  0  0  0  0  0  0  0
   -5.2304   -1.4556   -0.3228 N   0  0  0  0  0  0  0  0  0  0  0  0
   -4.5737    0.6313    0.6391 N   0  0  0  0  0  0  0  0  0  0  0  0
   -3.6528    1.5286    1.0783 C   0  0  0  0  0  0  0  0  0  0  0  0
   -4.0745    2.7647    1.6150 N   0  0  0  0  0  0  0  0  0  0  0  0
   -2.3281    1.2391    0.9997 N   0  0  0  0  0  0  0  0  0  0  0  0
   -1.8999    0.0652    0.4710 C   0  0  0  0  0  0  0  0  0  0  0  0
   -0.5698   -0.2026    0.4131 N   0  0  0  0  0  0  0  0  0  0  0  0
    2.3079    0.6046    0.0224 C   0  0  0  0  0  0  0  0  0  0  0  0
    2.8053    0.7872   -1.2812 C   0  0  0  0  0  0  0  0  0  0  0  0
    2.9143    2.0735   -1.8211 C   0  0  0  0  0  0  0  0  0  0  0  0
    3.5516    2.2933   -3.4405 Cl  0  0  0  0  0  0  0  0  0  0  0  0
    2.5237    3.1848   -1.0680 C   0  0  0  0  0  0  0  0  0  0  0  0
    2.0217    3.0127    0.2253 C   0  0  0  0  0  0  0  0  0  0  0  0
    1.5344    4.4085    1.1693 Cl  0  0  0  0  0  0  0  0  0  0  0  0
    1.9148    1.7290    0.7704 C   0  0  0  0  0  0  0  0  0  0  0  0
    3.6203   -2.3333    1.3015 H   0  0  0  0  0  0  0  0  0  0  0  0
    4.1534   -1.4767   -0.1996 H   0  0  0  0  0  0  0  0  0  0  0  0
    4.2633   -0.6673    1.4024 H   0  0  0  0  0  0  0  0  0  0  0  0
    1.8307   -0.7171    1.6717 H   0  0  0  0  0  0  0  0  0  0  0  0
    2.2586   -3.5447   -0.0980 H   0  0  0  0  0  0  0  0  0  0  0  0
    1.0015   -3.3937   -1.3535 H   0  0  0  0  0  0  0  0  0  0  0  0
    2.5471   -2.5452   -1.5857 H   0  0  0  0  0  0  0  0  0  0  0  0
   -2.9808   -2.8273   -0.9584 H   0  0  0  0  0  0  0  0  0  0  0  0
   -6.2182   -1.1856   -0.2084 H   0  0  0  0  0  0  0  0  0  0  0  0
   -5.0289   -2.3821   -0.7164 H   0  0  0  0  0  0  0  0  0  0  0  0
   -3.3813    3.4540    1.9399 H   0  0  0  0  0  0  0  0  0  0  0  0
   -5.0782    2.9901    1.6731 H   0  0  0  0  0  0  0  0  0  0  0  0
    3.1162   -0.0654   -1.8709 H   0  0  0  0  0  0  0  0  0  0  0  0
    2.6126    4.1799   -1.4857 H   0  0  0  0  0  0  0  0  0  0  0  0
    1.5326    1.6085    1.7765 H   0  0  0  0  0  0  0  0  0  0  0  0
  1 25  1  0  0  0  0
  1 26  1  0  0  0  0
  1 27  1  0  0  0  0
  2  1  1  0  0  0  0
  2 28  1  1  0  0  0
  3  2  1  0  0  0  0
  4  3  1  0  0  0  0
  4 29  1  0  0  0  0
  4 30  1  0  0  0  0
  4 31  1  0  0  0  0
  5  3  1  0  0  0  0
  6  5  2  0  0  0  0
  7  6  1  0  0  0  0
  7 32  1  0  0  0  0
  8  7  2  0  0  0  0
  9  8  1  0  0  0  0
 10  9  1  0  0  0  0
 10 33  1  0  0  0  0
 10 34  1  0  0  0  0
 11  9  2  0  0  0  0
 12 11  1  0  0  0  0
 13 12  1  0  0  0  0
 13 35  1  0  0  0  0
 13 36  1  0  0  0  0
 14 12  2  0  0  0  0
 15 14  1  0  0  0  0
 15  8  1  0  0  0  0
 16 15  2  0  0  0  0
 16  5  1  0  0  0  0
 17  2  1  0  0  0  0
 18 17  2  0  0  0  0
 18 37  1  0  0  0  0
 19 18  1  0  0  0  0
 20 19  1  0  0  0  0
 21 19  2  0  0  0  0
 21 38  1  0  0  0  0
 22 21  1  0  0  0  0
 23 22  1  0  0  0  0
 24 22  2  0  0  0  0
 24 17  1  0  0  0  0
 24 39  1  0  0  0  0
M  END
>  <MOL Chiral Flag>
0

>  <energy>
-213.7313027610945

$$$$
