>147.sdf
 OpenBabel10052220053D

 48 51  0  0  0  0  0  0  0  0999 V2000
   -3.7090   -4.6438   -2.3989 C   0  0  0  0  0  0  0  0  0  0  0  0
   -2.7360   -3.7824   -1.7065 N   0  3  2  0  0  0  0  0  0  0  0  0
   -3.4273   -2.6234   -1.1002 C   0  0  0  0  0  0  0  0  0  0  0  0
   -2.4342   -1.7283   -0.3439 C   0  0  0  0  0  0  0  0  0  0  0  0
   -1.3385   -1.2280   -1.3021 C   0  0  2  0  0  0  0  0  0  0  0  0
   -0.6518   -2.4489   -1.9474 C   0  0  0  0  0  0  0  0  0  0  0  0
   -1.6912   -3.3326   -2.6541 C   0  0  0  0  0  0  0  0  0  0  0  0
   -0.3685   -0.3199   -0.5715 C   0  0  0  0  0  0  0  0  0  0  0  0
    1.0021   -0.4713   -0.4688 C   0  0  0  0  0  0  0  0  0  0  0  0
    1.4712    0.5885    0.2951 C   0  0  0  0  0  0  0  0  0  0  0  0
    0.3449    1.3694    0.6112 C   0  0  0  0  0  0  0  0  0  0  0  0
   -0.7565    0.7908    0.0824 N   0  0  0  0  0  0  0  0  0  0  0  0
    0.2657    2.6714    1.3404 C   0  0  0  0  0  0  0  0  0  0  0  0
   -0.9166    3.0219    2.0226 C   0  0  0  0  0  0  0  0  0  0  0  0
   -1.0126    4.2419    2.6985 C   0  0  0  0  0  0  0  0  0  0  0  0
    0.0602    5.1344    2.6905 C   0  0  0  0  0  0  0  0  0  0  0  0
   -0.0368    6.3177    3.3451 F   0  0  0  0  0  0  0  0  0  0  0  0
    1.2287    4.8123    1.9991 C   0  0  0  0  0  0  0  0  0  0  0  0
    1.3323    3.5927    1.3237 C   0  0  0  0  0  0  0  0  0  0  0  0
    2.9025    0.7321    0.6980 C   0  0  0  0  0  0  0  0  0  0  0  0
    3.2677    1.3384    1.9134 C   0  0  0  0  0  0  0  0  0  0  0  0
    4.6157    1.4380    2.2648 C   0  0  0  0  0  0  0  0  0  0  0  0
    5.5758    0.9439    1.4407 N   0  0  0  0  0  0  0  0  0  0  0  0
    5.2579    0.3351    0.2685 C   0  0  0  0  0  0  0  0  0  0  0  0
    3.9217    0.2095   -0.1190 C   0  0  0  0  0  0  0  0  0  0  0  0
   -4.4849   -5.0042   -1.6880 H   0  0  0  0  0  0  0  0  0  0  0  0
   -3.2030   -5.5395   -2.8215 H   0  0  0  0  0  0  0  0  0  0  0  0
   -4.2133   -4.0963   -3.2265 H   0  0  0  0  0  0  0  0  0  0  0  0
   -2.2902   -4.3503   -0.9462 H   0  0  0  0  0  0  0  0  0  0  0  0
   -4.2022   -2.9710   -0.3807 H   0  0  0  0  0  0  0  0  0  0  0  0
   -3.9366   -2.0200   -1.8872 H   0  0  0  0  0  0  0  0  0  0  0  0
   -1.9750   -2.3077    0.4877 H   0  0  0  0  0  0  0  0  0  0  0  0
   -2.9901   -0.8714    0.0933 H   0  0  0  0  0  0  0  0  0  0  0  0
   -1.8191   -0.6251   -2.1047 H   0  0  0  0  0  0  0  0  0  0  0  0
   -0.1446   -3.0534   -1.1623 H   0  0  0  0  0  0  0  0  0  0  0  0
    0.1091   -2.1177   -2.6869 H   0  0  0  0  0  0  0  0  0  0  0  0
   -1.1645   -4.2118   -3.0890 H   0  0  0  0  0  0  0  0  0  0  0  0
   -2.1486   -2.7571   -3.4914 H   0  0  0  0  0  0  0  0  0  0  0  0
    1.5927   -1.2788   -0.8792 H   0  0  0  0  0  0  0  0  0  0  0  0
   -1.7351    1.1473    0.1363 H   0  0  0  0  0  0  0  0  0  0  0  0
   -1.7611    2.3466    2.0504 H   0  0  0  0  0  0  0  0  0  0  0  0
   -1.9217    4.4939    3.2293 H   0  0  0  0  0  0  0  0  0  0  0  0
    2.0554    5.5108    1.9798 H   0  0  0  0  0  0  0  0  0  0  0  0
    2.2370    3.3844    0.7726 H   0  0  0  0  0  0  0  0  0  0  0  0
    2.5215    1.7120    2.5988 H   0  0  0  0  0  0  0  0  0  0  0  0
    4.8975    1.9024    3.2004 H   0  0  0  0  0  0  0  0  0  0  0  0
    6.0438   -0.0531   -0.3654 H   0  0  0  0  0  0  0  0  0  0  0  0
    3.6902   -0.2754   -1.0581 H   0  0  0  0  0  0  0  0  0  0  0  0
  1 26  1  0  0  0  0
  1 27  1  0  0  0  0
  1 28  1  0  0  0  0
  2  1  1  0  0  0  0
  2 29  1  1  0  0  0
  3  2  1  0  0  0  0
  3 30  1  0  0  0  0
  3 31  1  0  0  0  0
  4  3  1  0  0  0  0
  4 32  1  0  0  0  0
  4 33  1  0  0  0  0
  5  4  1  0  0  0  0
  5 34  1  6  0  0  0
  6  5  1  0  0  0  0
  6 35  1  0  0  0  0
  6 36  1  0  0  0  0
  7  6  1  0  0  0  0
  7  2  1  0  0  0  0
  7 37  1  0  0  0  0
  7 38  1  0  0  0  0
  8  5  1  0  0  0  0
  9  8  2  0  0  0  0
  9 39  1  0  0  0  0
 10  9  1  0  0  0  0
 11 10  2  0  0  0  0
 12 11  1  0  0  0  0
 12  8  1  0  0  0  0
 12 40  1  0  0  0  0
 13 11  1  0  0  0  0
 14 13  2  0  0  0  0
 14 41  1  0  0  0  0
 15 14  1  0  0  0  0
 15 42  1  0  0  0  0
 16 15  2  0  0  0  0
 17 16  1  0  0  0  0
 18 16  1  0  0  0  0
 18 43  1  0  0  0  0
 19 18  2  0  0  0  0
 19 13  1  0  0  0  0
 19 44  1  0  0  0  0
 20 10  1  0  0  0  0
 21 20  2  0  0  0  0
 21 45  1  0  0  0  0
 22 21  1  0  0  0  0
 22 46  1  0  0  0  0
 23 22  2  0  0  0  0
 24 23  1  0  0  0  0
 24 47  1  0  0  0  0
 25 24  2  0  0  0  0
 25 20  1  0  0  0  0
 25 48  1  0  0  0  0
M  CHG  1   2   1
M  END
>  <MOL Chiral Flag>
0

>  <energy>
33.21822984082327

$$$$
