>15.sdf
 OpenBabel10052217573D

 37 39  0  0  0  0  0  0  0  0999 V2000
    6.4798    0.0881   -0.0953 C   0  0  0  0  0  0  0  0  0  0  0  0
    5.2330    0.9289   -0.1035 C   0  0  0  0  0  0  0  0  0  0  0  0
    5.2717    2.0960    0.2499 O   0  0  0  0  0  0  0  0  0  0  0  0
    4.0726    0.3304   -0.4616 N   0  0  0  0  0  0  0  0  0  0  0  0
    2.7475    0.8734   -0.4596 C   0  0  0  0  0  0  0  0  0  0  0  0
    1.7365   -0.0572   -0.5777 C   0  0  0  0  0  0  0  0  0  0  0  0
    0.4191    0.2972   -0.5454 C   0  0  0  0  0  0  0  0  0  0  0  0
   -0.4723   -0.6910   -0.6075 N   0  0  0  0  0  0  0  0  0  0  0  0
   -1.7873   -0.4815   -0.5511 C   0  0  0  0  0  0  0  0  0  0  0  0
   -2.3084    0.8168   -0.4471 C   0  0  0  0  0  0  0  0  0  0  0  0
   -3.7116    0.9600   -0.3730 C   0  0  0  0  0  0  0  0  0  0  0  0
   -4.5417   -0.1949   -0.3795 C   0  0  0  0  0  0  0  0  0  0  0  0
   -3.9731   -1.4903   -0.4809 C   0  0  0  0  0  0  0  0  0  0  0  0
   -4.7848   -2.6788   -0.4056 N   0  0  0  0  0  0  0  0  0  0  0  0
   -4.3630   -3.9347   -0.7885 C   0  0  0  0  0  0  0  0  0  0  0  0
   -5.1647   -5.1468   -0.4413 C   0  0  0  0  0  0  0  0  0  0  0  0
   -3.3325   -4.1001   -1.4206 O   0  0  0  0  0  0  0  0  0  0  0  0
   -2.5886   -1.5889   -0.5628 C   0  0  0  0  0  0  0  0  0  0  0  0
   -1.3894    1.9058   -0.3898 C   0  0  0  0  0  0  0  0  0  0  0  0
    0.0099    1.6335   -0.4223 C   0  0  0  0  0  0  0  0  0  0  0  0
    1.0155    2.6238   -0.3211 C   0  0  0  0  0  0  0  0  0  0  0  0
    2.3897    2.2456   -0.3278 C   0  0  0  0  0  0  0  0  0  0  0  0
    6.3213   -0.7813    0.5833 H   0  0  0  0  0  0  0  0  0  0  0  0
    6.6657   -0.3097   -1.1166 H   0  0  0  0  0  0  0  0  0  0  0  0
    7.3650    0.6543    0.2515 H   0  0  0  0  0  0  0  0  0  0  0  0
    4.1485   -0.6726   -0.7014 H   0  0  0  0  0  0  0  0  0  0  0  0
    1.9802   -1.1098   -0.6677 H   0  0  0  0  0  0  0  0  0  0  0  0
   -4.1611    1.9428   -0.2877 H   0  0  0  0  0  0  0  0  0  0  0  0
   -5.6154   -0.0812   -0.2977 H   0  0  0  0  0  0  0  0  0  0  0  0
   -5.7211   -2.5904    0.0141 H   0  0  0  0  0  0  0  0  0  0  0  0
   -5.2248   -5.2285    0.6644 H   0  0  0  0  0  0  0  0  0  0  0  0
   -6.1759   -5.0886   -0.8830 H   0  0  0  0  0  0  0  0  0  0  0  0
   -4.6491   -6.0598   -0.8194 H   0  0  0  0  0  0  0  0  0  0  0  0
   -2.0738   -2.5295   -0.5797 H   0  0  0  0  0  0  0  0  0  0  0  0
   -1.7506    2.9248   -0.2942 H   0  0  0  0  0  0  0  0  0  0  0  0
    0.7464    3.6696   -0.2211 H   0  0  0  0  0  0  0  0  0  0  0  0
    3.1386    3.0173   -0.2381 H   0  0  0  0  0  0  0  0  0  0  0  0
  1 23  1  0  0  0  0
  1 24  1  0  0  0  0
  1 25  1  0  0  0  0
  2  1  1  0  0  0  0
  3  2  2  0  0  0  0
  4  2  1  0  0  0  0
  4 26  1  0  0  0  0
  5  4  1  0  0  0  0
  6  5  2  0  0  0  0
  6 27  1  0  0  0  0
  7  6  1  0  0  0  0
  8  7  2  0  0  0  0
  9  8  1  0  0  0  0
 10  9  2  0  0  0  0
 11 10  1  0  0  0  0
 11 28  1  0  0  0  0
 12 11  2  0  0  0  0
 12 29  1  0  0  0  0
 13 12  1  0  0  0  0
 14 13  1  0  0  0  0
 14 30  1  0  0  0  0
 15 14  1  0  0  0  0
 16 15  1  0  0  0  0
 16 31  1  0  0  0  0
 16 32  1  0  0  0  0
 16 33  1  0  0  0  0
 17 15  2  0  0  0  0
 18 13  2  0  0  0  0
 18  9  1  0  0  0  0
 18 34  1  0  0  0  0
 19 10  1  0  0  0  0
 19 35  1  0  0  0  0
 20 19  2  0  0  0  0
 20  7  1  0  0  0  0
 21 20  1  0  0  0  0
 21 36  1  0  0  0  0
 22 21  2  0  0  0  0
 22  5  1  0  0  0  0
 22 37  1  0  0  0  0
M  END
>  <MOL Chiral Flag>
0

>  <energy>
20.888856953072207

$$$$
