>151.sdf
 OpenBabel10102213073D

 77 80  0  0  0  0  0  0  0  0999 V2000
   -4.8443    1.9978    1.6749 C   0  0  0  0  0  0  0  0  0  0  0  0
   -4.9379    0.9646    0.5534 C   0  0  0  0  0  0  0  0  0  0  0  0
   -4.6746   -0.4406    1.0645 C   0  0  0  0  0  0  0  0  0  0  0  0
   -5.6414   -1.0380    2.0609 C   0  0  0  0  0  0  0  0  0  0  0  0
   -3.5883   -1.1166    0.6065 C   0  0  0  0  0  0  0  0  0  0  0  0
   -3.1820   -2.5038    1.0188 C   0  0  0  0  0  0  0  0  0  0  0  0
   -3.8221   -3.1022    1.8672 O   0  0  0  0  0  0  0  0  0  0  0  0
   -2.0629   -3.1048    0.5232 O   0  0  0  0  0  0  0  0  0  0  0  0
   -1.3410   -2.7320   -0.6010 C   0  0  2  0  0  0  0  0  0  0  0  0
   -1.0193   -3.9786   -1.4368 C   0  0  1  0  0  0  0  0  0  0  0  0
   -2.2121   -4.5575   -1.8998 O   0  0  0  0  0  0  0  0  0  0  0  0
   -0.1195   -3.5769   -2.6162 C   0  0  2  0  0  0  0  0  0  0  0  0
    0.2690   -4.7313   -3.3174 O   0  0  0  0  0  0  0  0  0  0  0  0
    1.1164   -2.8276   -2.0652 C   0  0  1  0  0  0  0  0  0  0  0  0
    2.0320   -2.3626   -3.1980 C   0  0  0  0  0  0  0  0  0  0  0  0
    0.7015   -1.6831   -1.3382 O   0  0  0  0  0  0  0  0  0  0  0  0
   -0.0232   -2.0565   -0.1759 C   0  0  1  0  0  0  0  0  0  0  0  0
   -0.3637   -0.9132    0.5925 O   0  0  0  0  0  0  0  0  0  0  0  0
    0.6926   -0.0397    1.0100 C   0  0  1  0  0  0  0  0  0  0  0  0
    0.1658    0.5481    2.3497 C   0  0  0  0  0  0  0  0  0  0  0  0
    2.0395   -0.8002    1.3270 C   0  0  0  0  0  0  0  0  0  0  0  0
    3.2336    0.0659    1.7737 C   0  0  0  0  0  0  0  0  0  0  0  0
    3.9451    0.7068    0.5670 C   0  0  1  0  0  0  0  0  0  0  0  0
    3.3051    1.8987   -0.1898 C   0  0  1  0  0  0  0  0  0  0  0  0
    1.8635    2.2174    0.2517 C   0  0  1  0  0  0  0  0  0  0  0  0
    1.2704    3.4738   -0.4119 C   0  0  1  0  0  0  0  0  0  0  0  0
    1.4916    3.5623   -1.9387 C   0  0  0  0  0  0  0  0  0  0  0  0
   -0.2063    3.2955   -0.0540 C   0  0  0  0  0  0  0  0  0  0  0  0
   -0.4767    1.8353   -0.4024 C   0  0  0  0  0  0  0  0  0  0  0  0
    0.8487    1.0875   -0.0782 C   0  0  2  0  0  0  0  0  0  0  0  0
    4.5463    2.1043    0.6887 C   0  0  0  0  0  0  0  0  0  0  0  0
    5.8440    2.3117   -0.1010 C   0  0  0  0  0  0  0  0  0  0  0  0
    4.4234    2.9507    1.9697 C   0  0  0  0  0  0  0  0  0  0  0  0
   -3.8271    1.9823    2.1221 H   0  0  0  0  0  0  0  0  0  0  0  0
   -5.5930    1.8016    2.4697 H   0  0  0  0  0  0  0  0  0  0  0  0
   -5.0346    3.0107    1.2617 H   0  0  0  0  0  0  0  0  0  0  0  0
   -5.9465    1.0005    0.0889 H   0  0  0  0  0  0  0  0  0  0  0  0
   -4.1998    1.2572   -0.2256 H   0  0  0  0  0  0  0  0  0  0  0  0
   -5.1200   -1.2622    3.0151 H   0  0  0  0  0  0  0  0  0  0  0  0
   -6.4745   -0.3401    2.2842 H   0  0  0  0  0  0  0  0  0  0  0  0
   -6.0930   -1.9629    1.6446 H   0  0  0  0  0  0  0  0  0  0  0  0
   -2.9552   -0.5994   -0.1011 H   0  0  0  0  0  0  0  0  0  0  0  0
   -1.9093   -2.0326   -1.2489 H   0  0  0  0  0  0  0  0  0  0  0  0
   -0.4735   -4.6983   -0.7788 H   0  0  0  0  0  0  0  0  0  0  0  0
   -2.0128   -5.5095   -2.0982 H   0  0  0  0  0  0  0  0  0  0  0  0
   -0.7029   -2.8898   -3.2774 H   0  0  0  0  0  0  0  0  0  0  0  0
    0.3132   -4.4898   -4.2793 H   0  0  0  0  0  0  0  0  0  0  0  0
    1.7228   -3.5015   -1.4149 H   0  0  0  0  0  0  0  0  0  0  0  0
    1.4861   -1.6773   -3.8812 H   0  0  0  0  0  0  0  0  0  0  0  0
    2.9043   -1.8205   -2.7743 H   0  0  0  0  0  0  0  0  0  0  0  0
    2.4111   -3.2297   -3.7788 H   0  0  0  0  0  0  0  0  0  0  0  0
    0.5474   -2.7708    0.4629 H   0  0  0  0  0  0  0  0  0  0  0  0
   -0.0055   -0.2738    3.0781 H   0  0  0  0  0  0  0  0  0  0  0  0
    0.8409    1.2710    2.8390 H   0  0  0  0  0  0  0  0  0  0  0  0
   -0.8109    1.0551    2.2127 H   0  0  0  0  0  0  0  0  0  0  0  0
    2.3990   -1.4008    0.4661 H   0  0  0  0  0  0  0  0  0  0  0  0
    1.8182   -1.5168    2.1488 H   0  0  0  0  0  0  0  0  0  0  0  0
    2.9446    0.7519    2.5840 H   0  0  0  0  0  0  0  0  0  0  0  0
    3.9963   -0.6106    2.2152 H   0  0  0  0  0  0  0  0  0  0  0  0
    4.4028    0.0107   -0.1716 H   0  0  0  0  0  0  0  0  0  0  0  0
    3.4687    1.7159   -1.2748 H   0  0  0  0  0  0  0  0  0  0  0  0
    1.7975    2.4348    1.3275 H   0  0  0  0  0  0  0  0  0  0  0  0
    1.6885    4.4088    0.0227 H   0  0  0  0  0  0  0  0  0  0  0  0
    2.5695    3.7102   -2.1580 H   0  0  0  0  0  0  0  0  0  0  0  0
    1.1556    2.6577   -2.4831 H   0  0  0  0  0  0  0  0  0  0  0  0
    0.9471    4.4419   -2.3426 H   0  0  0  0  0  0  0  0  0  0  0  0
   -0.9029    4.0156   -0.5341 H   0  0  0  0  0  0  0  0  0  0  0  0
   -0.3102    3.4081    1.0497 H   0  0  0  0  0  0  0  0  0  0  0  0
   -1.4061    1.4304    0.0483 H   0  0  0  0  0  0  0  0  0  0  0  0
   -0.6368    1.7816   -1.5013 H   0  0  0  0  0  0  0  0  0  0  0  0
    1.1655    0.6279   -1.0375 H   0  0  0  0  0  0  0  0  0  0  0  0
    6.7117    2.0374    0.5348 H   0  0  0  0  0  0  0  0  0  0  0  0
    5.9355    3.3793   -0.3918 H   0  0  0  0  0  0  0  0  0  0  0  0
    5.8819    1.6960   -1.0256 H   0  0  0  0  0  0  0  0  0  0  0  0
    5.2605    2.6934    2.6516 H   0  0  0  0  0  0  0  0  0  0  0  0
    4.5092    4.0246    1.7018 H   0  0  0  0  0  0  0  0  0  0  0  0
    3.4894    2.8330    2.5418 H   0  0  0  0  0  0  0  0  0  0  0  0
  1 34  1  0  0  0  0
  1 35  1  0  0  0  0
  1 36  1  0  0  0  0
  2  1  1  0  0  0  0
  2 37  1  0  0  0  0
  2 38  1  0  0  0  0
  3  2  1  0  0  0  0
  4  3  1  0  0  0  0
  4 39  1  0  0  0  0
  4 40  1  0  0  0  0
  4 41  1  0  0  0  0
  5  3  2  0  0  0  0
  5 42  1  0  0  0  0
  6  5  1  0  0  0  0
  7  6  2  0  0  0  0
  8  6  1  0  0  0  0
  9  8  1  0  0  0  0
  9 43  1  6  0  0  0
 10  9  1  0  0  0  0
 10 44  1  1  0  0  0
 11 10  1  0  0  0  0
 11 45  1  0  0  0  0
 12 10  1  0  0  0  0
 12 46  1  6  0  0  0
 13 12  1  0  0  0  0
 13 47  1  0  0  0  0
 14 12  1  0  0  0  0
 14 48  1  1  0  0  0
 15 14  1  0  0  0  0
 15 49  1  0  0  0  0
 15 50  1  0  0  0  0
 15 51  1  0  0  0  0
 16 14  1  0  0  0  0
 17 16  1  0  0  0  0
 17  9  1  0  0  0  0
 17 52  1  1  0  0  0
 18 17  1  0  0  0  0
 19 18  1  6  0  0  0
 20 19  1  0  0  0  0
 20 53  1  0  0  0  0
 20 54  1  0  0  0  0
 20 55  1  0  0  0  0
 21 19  1  0  0  0  0
 21 56  1  0  0  0  0
 21 57  1  0  0  0  0
 22 21  1  0  0  0  0
 22 58  1  0  0  0  0
 22 59  1  0  0  0  0
 23 22  1  0  0  0  0
 23 60  1  6  0  0  0
 24 23  1  0  0  0  0
 24 61  1  6  0  0  0
 25 24  1  0  0  0  0
 25 62  1  1  0  0  0
 26 25  1  0  0  0  0
 26 63  1  1  0  0  0
 27 26  1  0  0  0  0
 27 64  1  0  0  0  0
 27 65  1  0  0  0  0
 27 66  1  0  0  0  0
 28 26  1  0  0  0  0
 28 67  1  0  0  0  0
 28 68  1  0  0  0  0
 29 28  1  0  0  0  0
 29 69  1  0  0  0  0
 29 70  1  0  0  0  0
 30 29  1  0  0  0  0
 30 19  1  0  0  0  0
 30 25  1  0  0  0  0
 30 71  1  6  0  0  0
 31 24  1  0  0  0  0
 31 23  1  0  0  0  0
 32 31  1  0  0  0  0
 32 72  1  0  0  0  0
 32 73  1  0  0  0  0
 32 74  1  0  0  0  0
 33 31  1  0  0  0  0
 33 75  1  0  0  0  0
 33 76  1  0  0  0  0
 33 77  1  0  0  0  0
M  END
>  <MOL Chiral Flag>
0

>  <energy>
170.73069833703153

$$$$
