>152.sdf
 OpenBabel10052220083D

 26 27  0  0  0  0  0  0  0  0999 V2000
   -3.4893   -2.0378    0.8426 O   0  0  0  0  0  0  0  0  0  0  0  0
   -2.7978   -1.4263   -0.2127 C   0  0  2  0  0  0  0  0  0  0  0  0
   -1.4334   -0.9184    0.2647 C   0  0  0  0  0  0  0  0  0  0  0  0
   -1.1813    0.3209   -0.6149 C   0  0  2  0  0  0  0  0  0  0  0  0
   -0.2253    1.3805   -0.0349 C   0  0  0  0  0  0  0  0  0  0  0  0
    1.2072    0.9080    0.0937 C   0  0  0  0  0  0  0  0  0  0  0  0
    1.5664   -0.0736    1.0359 C   0  0  0  0  0  0  0  0  0  0  0  0
    2.8958   -0.4926    1.1473 C   0  0  0  0  0  0  0  0  0  0  0  0
    3.8782    0.0646    0.3258 C   0  0  0  0  0  0  0  0  0  0  0  0
    3.5346    1.0462   -0.6062 C   0  0  0  0  0  0  0  0  0  0  0  0
    2.2071    1.4700   -0.7219 C   0  0  0  0  0  0  0  0  0  0  0  0
   -2.4482    0.8328   -0.7858 O   0  0  0  0  0  0  0  0  0  0  0  0
   -3.3762   -0.1199   -0.6193 C   0  0  0  0  0  0  0  0  0  0  0  0
   -4.5386    0.0356   -0.9572 O   0  0  0  0  0  0  0  0  0  0  0  0
   -4.3451   -2.3665    0.4622 H   0  0  0  0  0  0  0  0  0  0  0  0
   -2.7192   -2.0891   -1.1042 H   0  0  0  0  0  0  0  0  0  0  0  0
   -0.6337   -1.6873    0.2958 H   0  0  0  0  0  0  0  0  0  0  0  0
   -1.5881   -0.5281    1.2985 H   0  0  0  0  0  0  0  0  0  0  0  0
   -0.8169   -0.0046   -1.6162 H   0  0  0  0  0  0  0  0  0  0  0  0
   -0.5888    1.7452    0.9501 H   0  0  0  0  0  0  0  0  0  0  0  0
   -0.2608    2.2431   -0.7360 H   0  0  0  0  0  0  0  0  0  0  0  0
    0.8259   -0.5068    1.6923 H   0  0  0  0  0  0  0  0  0  0  0  0
    3.1649   -1.2479    1.8743 H   0  0  0  0  0  0  0  0  0  0  0  0
    4.9066   -0.2610    0.4147 H   0  0  0  0  0  0  0  0  0  0  0  0
    4.2975    1.4804   -1.2394 H   0  0  0  0  0  0  0  0  0  0  0  0
    1.9586    2.2325   -1.4494 H   0  0  0  0  0  0  0  0  0  0  0  0
  1 15  1  0  0  0  0
  2  1  1  0  0  0  0
  2 16  1  6  0  0  0
  3  2  1  0  0  0  0
  3 17  1  0  0  0  0
  3 18  1  0  0  0  0
  4  3  1  0  0  0  0
  4 19  1  6  0  0  0
  5  4  1  0  0  0  0
  5 20  1  0  0  0  0
  5 21  1  0  0  0  0
  6  5  1  0  0  0  0
  7  6  2  0  0  0  0
  7 22  1  0  0  0  0
  8  7  1  0  0  0  0
  8 23  1  0  0  0  0
  9  8  2  0  0  0  0
  9 24  1  0  0  0  0
 10  9  1  0  0  0  0
 10 25  1  0  0  0  0
 11 10  2  0  0  0  0
 11  6  1  0  0  0  0
 11 26  1  0  0  0  0
 12  4  1  0  0  0  0
 13 12  1  0  0  0  0
 13  2  1  0  0  0  0
 14 13  2  0  0  0  0
M  END
>  <MOL Chiral Flag>
0

>  <energy>
52.513353156245607

$$$$
