>16.sdf
 OpenBabel10052217583D

 51 55  0  0  0  0  0  0  0  0999 V2000
    6.5528   -0.7944    0.6912 O   0  0  0  0  0  0  0  0  0  0  0  0
    6.0935    0.3166    0.4848 C   0  0  0  0  0  0  0  0  0  0  0  0
    4.7450    0.4882    0.3094 N   0  0  0  0  0  0  0  0  0  0  0  0
    3.7083   -0.5092    0.3756 C   0  0  0  0  0  0  0  0  0  0  0  0
    2.3984   -0.0700    0.1428 C   0  0  0  0  0  0  0  0  0  0  0  0
    1.3196   -0.9374    0.2180 C   0  0  0  0  0  0  0  0  0  0  0  0
    0.0750   -0.4529    0.0131 N   0  0  0  0  0  0  0  0  0  0  0  0
   -1.0237   -1.2344    0.1107 C   0  0  0  0  0  0  0  0  0  0  0  0
   -0.9004   -2.6008    0.4234 C   0  0  0  0  0  0  0  0  0  0  0  0
   -2.0623   -3.3782    0.5580 C   0  0  0  0  0  0  0  0  0  0  0  0
   -3.3284   -2.7851    0.4011 C   0  0  0  0  0  0  0  0  0  0  0  0
   -3.4481   -1.4173    0.0779 C   0  0  0  0  0  0  0  0  0  0  0  0
   -4.7495   -0.8102   -0.0011 N   0  0  0  0  0  0  0  0  0  0  0  0
   -5.0119    0.3759   -0.6465 C   0  0  0  0  0  0  0  0  0  0  0  0
   -4.1731    0.8683   -1.3857 O   0  0  0  0  0  0  0  0  0  0  0  0
   -6.3065    1.1113   -0.4766 C   0  0  0  0  0  0  0  0  0  0  0  0
   -7.2698    0.7414    0.4874 C   0  0  0  0  0  0  0  0  0  0  0  0
   -8.4296    1.5057    0.6562 C   0  0  0  0  0  0  0  0  0  0  0  0
   -8.6478    2.6393   -0.1282 C   0  0  0  0  0  0  0  0  0  0  0  0
   -7.7086    3.0144   -1.0871 C   0  0  0  0  0  0  0  0  0  0  0  0
   -6.5460    2.2617   -1.2606 C   0  0  0  0  0  0  0  0  0  0  0  0
   -2.2719   -0.6569   -0.0645 C   0  0  0  0  0  0  0  0  0  0  0  0
    0.3868   -3.1386    0.6207 C   0  0  0  0  0  0  0  0  0  0  0  0
    1.5121   -2.2954    0.5263 C   0  0  0  0  0  0  0  0  0  0  0  0
    2.8156   -2.7651    0.7491 C   0  0  0  0  0  0  0  0  0  0  0  0
    3.9109   -1.8830    0.6786 C   0  0  0  0  0  0  0  0  0  0  0  0
    7.0463    1.4862    0.4241 C   0  0  0  0  0  0  0  0  0  0  0  0
    8.4340    1.2472    0.5225 C   0  0  0  0  0  0  0  0  0  0  0  0
    9.3479    2.3047    0.4732 C   0  0  0  0  0  0  0  0  0  0  0  0
    8.8981    3.6164    0.3294 C   0  0  0  0  0  0  0  0  0  0  0  0
    7.5335    3.8769    0.2349 C   0  0  0  0  0  0  0  0  0  0  0  0
    6.6100    2.8295    0.2805 C   0  0  0  0  0  0  0  0  0  0  0  0
    4.4111    1.4349    0.1094 H   0  0  0  0  0  0  0  0  0  0  0  0
    2.2112    0.9729   -0.0868 H   0  0  0  0  0  0  0  0  0  0  0  0
   -1.9928   -4.4303    0.8082 H   0  0  0  0  0  0  0  0  0  0  0  0
   -4.2167   -3.3897    0.5353 H   0  0  0  0  0  0  0  0  0  0  0  0
   -5.5121   -1.2962    0.4858 H   0  0  0  0  0  0  0  0  0  0  0  0
   -7.1317   -0.1114    1.1321 H   0  0  0  0  0  0  0  0  0  0  0  0
   -9.1559    1.2240    1.4071 H   0  0  0  0  0  0  0  0  0  0  0  0
   -9.5423    3.2318    0.0120 H   0  0  0  0  0  0  0  0  0  0  0  0
   -7.8747    3.8969   -1.6918 H   0  0  0  0  0  0  0  0  0  0  0  0
   -5.8264    2.5851   -2.0029 H   0  0  0  0  0  0  0  0  0  0  0  0
   -2.2950    0.4025   -0.2545 H   0  0  0  0  0  0  0  0  0  0  0  0
    0.5087   -4.1872    0.8689 H   0  0  0  0  0  0  0  0  0  0  0  0
    2.9862   -3.8073    0.9918 H   0  0  0  0  0  0  0  0  0  0  0  0
    4.8825   -2.2967    0.8746 H   0  0  0  0  0  0  0  0  0  0  0  0
    8.8131    0.2397    0.6351 H   0  0  0  0  0  0  0  0  0  0  0  0
   10.4087    2.1056    0.5473 H   0  0  0  0  0  0  0  0  0  0  0  0
    9.6072    4.4332    0.2928 H   0  0  0  0  0  0  0  0  0  0  0  0
    7.1855    4.8969    0.1272 H   0  0  0  0  0  0  0  0  0  0  0  0
    5.5714    3.1009    0.2094 H   0  0  0  0  0  0  0  0  0  0  0  0
  2  1  2  0  0  0  0
  3  2  1  0  0  0  0
  3 33  1  0  0  0  0
  4  3  1  0  0  0  0
  5  4  2  0  0  0  0
  5 34  1  0  0  0  0
  6  5  1  0  0  0  0
  7  6  2  0  0  0  0
  8  7  1  0  0  0  0
  9  8  2  0  0  0  0
 10  9  1  0  0  0  0
 10 35  1  0  0  0  0
 11 10  2  0  0  0  0
 11 36  1  0  0  0  0
 12 11  1  0  0  0  0
 13 12  1  0  0  0  0
 13 37  1  0  0  0  0
 14 13  1  0  0  0  0
 15 14  2  0  0  0  0
 16 14  1  0  0  0  0
 17 16  2  0  0  0  0
 17 38  1  0  0  0  0
 18 17  1  0  0  0  0
 18 39  1  0  0  0  0
 19 18  2  0  0  0  0
 19 40  1  0  0  0  0
 20 19  1  0  0  0  0
 20 41  1  0  0  0  0
 21 20  2  0  0  0  0
 21 16  1  0  0  0  0
 21 42  1  0  0  0  0
 22 12  2  0  0  0  0
 22  8  1  0  0  0  0
 22 43  1  0  0  0  0
 23  9  1  0  0  0  0
 23 44  1  0  0  0  0
 24 23  2  0  0  0  0
 24  6  1  0  0  0  0
 25 24  1  0  0  0  0
 25 45  1  0  0  0  0
 26 25  2  0  0  0  0
 26  4  1  0  0  0  0
 26 46  1  0  0  0  0
 27  2  1  0  0  0  0
 28 27  2  0  0  0  0
 28 47  1  0  0  0  0
 29 28  1  0  0  0  0
 29 48  1  0  0  0  0
 30 29  2  0  0  0  0
 30 49  1  0  0  0  0
 31 30  1  0  0  0  0
 31 50  1  0  0  0  0
 32 31  2  0  0  0  0
 32 27  1  0  0  0  0
 32 51  1  0  0  0  0
M  END
>  <MOL Chiral Flag>
0

>  <energy>
101.83445234996746

$$$$
