>166.sdf
 OpenBabel10052220143D

 47 50  0  0  0  0  0  0  0  0999 V2000
    4.2400   -0.8989    2.3087 C   0  0  0  0  0  0  0  0  0  0  0  0
    4.6097   -1.8609    1.3848 O   0  0  0  0  0  0  0  0  0  0  0  0
    5.5254   -2.8355    1.6484 C   0  0  0  0  0  0  0  0  0  0  0  0
    5.6484   -3.4231    2.9295 C   0  0  0  0  0  0  0  0  0  0  0  0
    6.6131   -4.4055    3.1661 C   0  0  0  0  0  0  0  0  0  0  0  0
    7.4676   -4.8096    2.1402 C   0  0  0  0  0  0  0  0  0  0  0  0
    7.3479   -4.2439    0.8682 C   0  0  0  0  0  0  0  0  0  0  0  0
    6.3746   -3.2680    0.6200 C   0  0  0  0  0  0  0  0  0  0  0  0
    3.0723   -0.0935    1.8398 C   0  0  0  0  0  0  0  0  0  0  0  0
    2.9352    0.7005    0.7139 C   0  0  0  0  0  0  0  0  0  0  0  0
    1.6801    1.2046    0.7509 N   0  0  0  0  0  0  0  0  0  0  0  0
    1.1077    0.7640    1.8619 N   0  0  0  0  0  0  0  0  0  0  0  0
    1.9235   -0.0277    2.5311 N   0  0  0  0  0  0  0  0  0  0  0  0
    1.0358    2.1054   -0.1934 C   0  0  0  0  0  0  0  0  0  0  0  0
   -0.3956    2.1914   -0.3210 C   0  0  0  0  0  0  0  0  0  0  0  0
   -1.3044    1.2639    0.4185 C   0  0  0  0  0  0  0  0  0  0  0  0
   -2.5903    1.3610    0.4173 N   0  0  0  0  0  0  0  0  0  0  0  0
   -3.3235    0.4498    1.1537 N   0  0  0  0  0  0  0  0  0  0  0  0
   -4.7426    0.4289    1.1715 C   0  0  0  0  0  0  0  0  0  0  0  0
   -5.3900   -0.4952    2.0093 C   0  0  0  0  0  0  0  0  0  0  0  0
   -6.7818   -0.5552    2.0581 C   0  0  0  0  0  0  0  0  0  0  0  0
   -7.5439    0.3054    1.2674 C   0  0  0  0  0  0  0  0  0  0  0  0
   -6.9116    1.2295    0.4274 C   0  0  0  0  0  0  0  0  0  0  0  0
   -5.5121    1.2962    0.3772 C   0  0  0  0  0  0  0  0  0  0  0  0
   -0.9495    3.1373   -1.2061 C   0  0  0  0  0  0  0  0  0  0  0  0
   -0.1261    3.9702   -1.9655 C   0  0  0  0  0  0  0  0  0  0  0  0
    1.2592    3.8712   -1.8631 C   0  0  0  0  0  0  0  0  0  0  0  0
    1.8371    2.9481   -0.9903 C   0  0  0  0  0  0  0  0  0  0  0  0
    3.9225   -1.3679    3.2607 H   0  0  0  0  0  0  0  0  0  0  0  0
    5.1035   -0.2302    2.5048 H   0  0  0  0  0  0  0  0  0  0  0  0
    5.0024   -3.1399    3.7460 H   0  0  0  0  0  0  0  0  0  0  0  0
    6.6993   -4.8509    4.1494 H   0  0  0  0  0  0  0  0  0  0  0  0
    8.2212   -5.5629    2.3316 H   0  0  0  0  0  0  0  0  0  0  0  0
    8.0132   -4.5592    0.0753 H   0  0  0  0  0  0  0  0  0  0  0  0
    6.2945   -2.8323   -0.3675 H   0  0  0  0  0  0  0  0  0  0  0  0
    3.6699    0.8757   -0.0613 H   0  0  0  0  0  0  0  0  0  0  0  0
   -0.8865    0.4342    0.9505 H   0  0  0  0  0  0  0  0  0  0  0  0
   -2.8280   -0.2399    1.7425 H   0  0  0  0  0  0  0  0  0  0  0  0
   -4.8087   -1.1692    2.6275 H   0  0  0  0  0  0  0  0  0  0  0  0
   -7.2670   -1.2709    2.7097 H   0  0  0  0  0  0  0  0  0  0  0  0
   -8.6240    0.2546    1.3064 H   0  0  0  0  0  0  0  0  0  0  0  0
   -7.5078    1.8927   -0.1847 H   0  0  0  0  0  0  0  0  0  0  0  0
   -5.0367    2.0141   -0.2781 H   0  0  0  0  0  0  0  0  0  0  0  0
   -2.0228    3.2210   -1.3224 H   0  0  0  0  0  0  0  0  0  0  0  0
   -0.5648    4.6905   -2.6450 H   0  0  0  0  0  0  0  0  0  0  0  0
    1.8906    4.5202   -2.4575 H   0  0  0  0  0  0  0  0  0  0  0  0
    2.9155    2.9119   -0.9163 H   0  0  0  0  0  0  0  0  0  0  0  0
  1 29  1  0  0  0  0
  1 30  1  0  0  0  0
  2  1  1  0  0  0  0
  3  2  1  0  0  0  0
  4  3  2  0  0  0  0
  4 31  1  0  0  0  0
  5  4  1  0  0  0  0
  5 32  1  0  0  0  0
  6  5  2  0  0  0  0
  6 33  1  0  0  0  0
  7  6  1  0  0  0  0
  7 34  1  0  0  0  0
  8  7  2  0  0  0  0
  8  3  1  0  0  0  0
  8 35  1  0  0  0  0
  9  1  1  0  0  0  0
 10  9  2  0  0  0  0
 10 36  1  0  0  0  0
 11 10  1  0  0  0  0
 12 11  1  0  0  0  0
 13 12  2  0  0  0  0
 13  9  1  0  0  0  0
 14 11  1  0  0  0  0
 15 14  2  0  0  0  0
 16 15  1  0  0  0  0
 16 37  1  0  0  0  0
 17 16  2  0  0  0  0
 18 17  1  0  0  0  0
 18 38  1  0  0  0  0
 19 18  1  0  0  0  0
 20 19  2  0  0  0  0
 20 39  1  0  0  0  0
 21 20  1  0  0  0  0
 21 40  1  0  0  0  0
 22 21  2  0  0  0  0
 22 41  1  0  0  0  0
 23 22  1  0  0  0  0
 23 42  1  0  0  0  0
 24 23  2  0  0  0  0
 24 19  1  0  0  0  0
 24 43  1  0  0  0  0
 25 15  1  0  0  0  0
 25 44  1  0  0  0  0
 26 25  2  0  0  0  0
 26 45  1  0  0  0  0
 27 26  1  0  0  0  0
 27 46  1  0  0  0  0
 28 27  2  0  0  0  0
 28 14  1  0  0  0  0
 28 47  1  0  0  0  0
M  END
>  <MOL Chiral Flag>
0

>  <energy>
116.03481912924651

$$$$
