>167.sdf
 OpenBabel10052220143D

 34 35  0  0  0  0  0  0  0  0999 V2000
    4.5876    1.3370    1.0187 C   0  0  0  0  0  0  0  0  0  0  0  0
    4.7552    0.2195    1.9564 N   0  0  0  0  0  0  0  0  0  0  0  0
    3.7472   -0.5289    2.4854 C   0  0  0  0  0  0  0  0  0  0  0  0
    2.2687   -0.4123    2.2149 C   0  0  0  0  0  0  0  0  0  0  0  0
    1.9335    0.4397    1.1784 O   0  0  0  0  0  0  0  0  0  0  0  0
    0.6600    0.5797    0.7115 C   0  0  0  0  0  0  0  0  0  0  0  0
    0.4552    1.1472   -0.5551 C   0  0  0  0  0  0  0  0  0  0  0  0
   -0.8372    1.2410   -1.0895 C   0  0  0  0  0  0  0  0  0  0  0  0
   -1.9378    0.7805   -0.3533 C   0  0  0  0  0  0  0  0  0  0  0  0
   -1.7433    0.2404    0.9188 C   0  0  0  0  0  0  0  0  0  0  0  0
   -0.4590    0.1356    1.4505 C   0  0  0  0  0  0  0  0  0  0  0  0
   -3.5966    0.8234   -1.0347 S   0  0  0  0  0  0  0  0  0  0  0  0
   -4.4980   -0.6751   -1.5228 C   0  0  0  0  0  0  0  0  0  0  0  0
   -4.4781    1.5969   -0.0424 O   0  0  0  0  0  0  0  0  0  0  0  0
   -3.6252    1.8141   -2.2087 O   0  0  0  0  0  0  0  0  0  0  0  0
    4.2082   -1.4679    3.3399 N   0  0  0  0  0  0  0  0  0  0  0  0
    5.5430   -1.3267    3.3494 C   0  0  0  0  0  0  0  0  0  0  0  0
    5.8896   -0.2926    2.5075 C   0  0  0  0  0  0  0  0  0  0  0  0
    7.2372    0.1319    2.2878 N   0  3  0  0  0  0  0  0  0  0  0  0
    7.5229    1.1280    1.4820 O   0  5  0  0  0  0  0  0  0  0  0  0
    8.1292   -0.4311    2.8473 O   0  0  0  0  0  0  0  0  0  0  0  0
    5.5266    1.8323    0.7389 H   0  0  0  0  0  0  0  0  0  0  0  0
    3.9443    2.1137    1.4842 H   0  0  0  0  0  0  0  0  0  0  0  0
    4.1193    0.9768    0.0802 H   0  0  0  0  0  0  0  0  0  0  0  0
    1.7700   -0.1044    3.1580 H   0  0  0  0  0  0  0  0  0  0  0  0
    1.9220   -1.4310    1.9329 H   0  0  0  0  0  0  0  0  0  0  0  0
    1.3010    1.4886   -1.1389 H   0  0  0  0  0  0  0  0  0  0  0  0
   -0.9772    1.6551   -2.0798 H   0  0  0  0  0  0  0  0  0  0  0  0
   -2.5892   -0.1176    1.4921 H   0  0  0  0  0  0  0  0  0  0  0  0
   -0.3464   -0.3032    2.4309 H   0  0  0  0  0  0  0  0  0  0  0  0
   -3.8951   -1.2455   -2.2593 H   0  0  0  0  0  0  0  0  0  0  0  0
   -5.4679   -0.3979   -1.9836 H   0  0  0  0  0  0  0  0  0  0  0  0
   -4.6875   -1.3006   -0.6256 H   0  0  0  0  0  0  0  0  0  0  0  0
    6.2129   -1.9412    3.9361 H   0  0  0  0  0  0  0  0  0  0  0  0
  1 22  1  0  0  0  0
  1 23  1  0  0  0  0
  1 24  1  0  0  0  0
  2  1  1  0  0  0  0
  3  2  1  0  0  0  0
  4  3  1  0  0  0  0
  4 25  1  0  0  0  0
  4 26  1  0  0  0  0
  5  4  1  0  0  0  0
  6  5  1  0  0  0  0
  7  6  2  0  0  0  0
  7 27  1  0  0  0  0
  8  7  1  0  0  0  0
  8 28  1  0  0  0  0
  9  8  2  0  0  0  0
 10  9  1  0  0  0  0
 10 29  1  0  0  0  0
 11 10  2  0  0  0  0
 11  6  1  0  0  0  0
 11 30  1  0  0  0  0
 12  9  1  0  0  0  0
 13 12  1  0  0  0  0
 13 31  1  0  0  0  0
 13 32  1  0  0  0  0
 13 33  1  0  0  0  0
 14 12  2  0  0  0  0
 15 12  2  0  0  0  0
 16  3  2  0  0  0  0
 17 16  1  0  0  0  0
 17 34  1  0  0  0  0
 18 17  2  0  0  0  0
 18  2  1  0  0  0  0
 19 18  1  0  0  0  0
 20 19  1  0  0  0  0
 21 19  2  0  0  0  0
M  CHG  2  19   1  20  -1
M  END
>  <MOL Chiral Flag>
0

>  <energy>
64.537074012521686

$$$$
