>174.sdf
 OpenBabel10052220173D

 43 46  0  0  0  0  0  0  0  0999 V2000
    2.3739   -0.6193    2.6544 C   0  0  0  0  0  0  0  0  0  0  0  0
    2.9179   -1.1641    1.3368 C   0  0  0  0  0  0  0  0  0  0  0  0
    1.8529   -1.5443    0.4162 N   0  0  0  0  0  0  0  0  0  0  0  0
    0.9357   -2.5152    0.6379 C   0  0  0  0  0  0  0  0  0  0  0  0
    0.8859   -3.1683    1.6695 O   0  0  0  0  0  0  0  0  0  0  0  0
    0.0362   -2.7603   -0.5651 C   0  0  1  0  0  0  0  0  0  0  0  0
    0.2596   -4.0551   -1.0783 O   0  0  0  0  0  0  0  0  0  0  0  0
   -1.4548   -2.5129   -0.3032 C   0  0  0  0  0  0  0  0  0  0  0  0
   -2.3513   -3.5075   -0.4593 C   0  0  0  0  0  0  0  0  0  0  0  0
   -1.9642   -1.1601    0.0575 C   0  0  0  0  0  0  0  0  0  0  0  0
   -1.2030   -0.0755    0.3084 N   0  0  0  0  0  0  0  0  0  0  0  0
   -2.1240    0.9021    0.4624 C   0  0  0  0  0  0  0  0  0  0  0  0
   -3.3720    0.4246    0.3105 N   0  0  0  0  0  0  0  0  0  0  0  0
   -3.2382   -0.8438    0.0689 O   0  0  0  0  0  0  0  0  0  0  0  0
   -1.8133    2.3218    0.7305 C   0  0  0  0  0  0  0  0  0  0  0  0
   -0.5099    2.7191    1.0735 C   0  0  0  0  0  0  0  0  0  0  0  0
   -0.2300    4.0664    1.3293 C   0  0  0  0  0  0  0  0  0  0  0  0
   -1.2423    5.0254    1.2301 C   0  0  0  0  0  0  0  0  0  0  0  0
   -2.5383    4.6397    0.8816 C   0  0  0  0  0  0  0  0  0  0  0  0
   -2.8273    3.2938    0.6390 C   0  0  0  0  0  0  0  0  0  0  0  0
    0.6121   -1.7071   -1.4925 C   0  0  0  0  0  0  0  0  0  0  0  0
    0.2166   -1.3917   -2.7925 C   0  0  0  0  0  0  0  0  0  0  0  0
    0.8927   -0.3640   -3.4708 C   0  0  0  0  0  0  0  0  0  0  0  0
    0.4162    0.0655   -5.1029 Cl  0  0  0  0  0  0  0  0  0  0  0  0
    1.9518    0.3234   -2.8417 C   0  0  0  0  0  0  0  0  0  0  0  0
    2.3393   -0.0128   -1.5333 C   0  0  0  0  0  0  0  0  0  0  0  0
    1.6465   -1.0374   -0.8771 C   0  0  0  0  0  0  0  0  0  0  0  0
    3.2253   -0.3381    3.3105 H   0  0  0  0  0  0  0  0  0  0  0  0
    1.7735   -1.3843    3.1866 H   0  0  0  0  0  0  0  0  0  0  0  0
    1.7486    0.2780    2.4702 H   0  0  0  0  0  0  0  0  0  0  0  0
    3.5541   -2.0524    1.5423 H   0  0  0  0  0  0  0  0  0  0  0  0
    3.5694   -0.3879    0.8908 H   0  0  0  0  0  0  0  0  0  0  0  0
    1.2237   -4.1436   -1.3042 H   0  0  0  0  0  0  0  0  0  0  0  0
   -2.0516   -4.5103   -0.7420 H   0  0  0  0  0  0  0  0  0  0  0  0
   -3.4111   -3.3341   -0.2983 H   0  0  0  0  0  0  0  0  0  0  0  0
    0.2844    1.9881    1.1548 H   0  0  0  0  0  0  0  0  0  0  0  0
    0.7723    4.3678    1.6038 H   0  0  0  0  0  0  0  0  0  0  0  0
   -1.0226    6.0677    1.4227 H   0  0  0  0  0  0  0  0  0  0  0  0
   -3.3206    5.3838    0.7990 H   0  0  0  0  0  0  0  0  0  0  0  0
   -3.8374    3.0133    0.3669 H   0  0  0  0  0  0  0  0  0  0  0  0
   -0.5989   -1.9254   -3.2635 H   0  0  0  0  0  0  0  0  0  0  0  0
    2.4708    1.1146   -3.3673 H   0  0  0  0  0  0  0  0  0  0  0  0
    3.1513    0.5206   -1.0624 H   0  0  0  0  0  0  0  0  0  0  0  0
  1 28  1  0  0  0  0
  1 29  1  0  0  0  0
  1 30  1  0  0  0  0
  2  1  1  0  0  0  0
  2 31  1  0  0  0  0
  2 32  1  0  0  0  0
  3  2  1  0  0  0  0
  4  3  1  0  0  0  0
  5  4  2  0  0  0  0
  6  4  1  0  0  0  0
  6  7  1  6  0  0  0
  7 33  1  0  0  0  0
  8  6  1  0  0  0  0
  9  8  2  0  0  0  0
  9 34  1  0  0  0  0
  9 35  1  0  0  0  0
 10  8  1  0  0  0  0
 11 10  2  0  0  0  0
 12 11  1  0  0  0  0
 13 12  2  0  0  0  0
 14 13  1  0  0  0  0
 14 10  1  0  0  0  0
 15 12  1  0  0  0  0
 16 15  2  0  0  0  0
 16 36  1  0  0  0  0
 17 16  1  0  0  0  0
 17 37  1  0  0  0  0
 18 17  2  0  0  0  0
 18 38  1  0  0  0  0
 19 18  1  0  0  0  0
 19 39  1  0  0  0  0
 20 19  2  0  0  0  0
 20 15  1  0  0  0  0
 20 40  1  0  0  0  0
 21  6  1  0  0  0  0
 22 21  2  0  0  0  0
 22 41  1  0  0  0  0
 23 22  1  0  0  0  0
 24 23  1  0  0  0  0
 25 23  2  0  0  0  0
 25 42  1  0  0  0  0
 26 25  1  0  0  0  0
 26 43  1  0  0  0  0
 27 26  2  0  0  0  0
 27  3  1  0  0  0  0
 27 21  1  0  0  0  0
M  END
>  <MOL Chiral Flag>
0

>  <energy>
96.072314704349154

$$$$
