>176.sdf
 OpenBabel10052220183D

 49 53  0  0  0  0  0  0  0  0999 V2000
   -4.9905   -0.3659    0.1675 C   0  0  0  0  0  0  0  0  0  0  0  0
   -3.9449   -1.3848   -0.0241 N   0  3  0  0  0  0  0  0  0  0  0  0
   -3.0284   -0.9516   -1.1030 C   0  0  0  0  0  0  0  0  0  0  0  0
   -1.9430   -2.0007   -1.3326 C   0  0  0  0  0  0  0  0  0  0  0  0
   -1.2777   -2.2609   -0.0737 N   0  0  0  0  0  0  0  0  0  0  0  0
   -2.0921   -2.6646    1.0534 C   0  0  0  0  0  0  0  0  0  0  0  0
   -3.1970   -1.6043    1.2404 C   0  0  0  0  0  0  0  0  0  0  0  0
    0.0803   -1.8862    0.0847 C   0  0  0  0  0  0  0  0  0  0  0  0
    0.3961   -0.5668   -0.0069 N   0  0  0  0  0  0  0  0  0  0  0  0
    1.6630   -0.1825    0.0595 N   0  0  0  0  0  0  0  0  0  0  0  0
    2.2000    1.0427   -0.0197 C   0  0  0  0  0  0  0  0  0  0  0  0
    3.5520    0.9473    0.0110 N   0  0  0  0  0  0  0  0  0  0  0  0
    3.8574   -0.3460    0.1403 N   0  0  0  0  0  0  0  0  0  0  0  0
    2.6891   -1.0189    0.1679 C   0  0  0  0  0  0  0  0  0  0  0  0
    2.4726   -2.3932    0.2728 C   0  0  0  0  0  0  0  0  0  0  0  0
    1.1225   -2.8454    0.2403 C   0  0  0  0  0  0  0  0  0  0  0  0
    0.8618   -4.2249    0.3173 C   0  0  0  0  0  0  0  0  0  0  0  0
    1.9201   -5.1334    0.4319 C   0  0  0  0  0  0  0  0  0  0  0  0
    3.2436   -4.6804    0.4650 C   0  0  0  0  0  0  0  0  0  0  0  0
    3.5239   -3.3131    0.3849 C   0  0  0  0  0  0  0  0  0  0  0  0
    1.4410    2.3182   -0.1208 C   0  0  0  0  0  0  0  0  0  0  0  0
    0.1020    2.4009    0.3107 C   0  0  0  0  0  0  0  0  0  0  0  0
   -0.5972    3.6026    0.2249 C   0  0  0  0  0  0  0  0  0  0  0  0
    0.0150    4.7353   -0.3066 C   0  0  0  0  0  0  0  0  0  0  0  0
    1.3497    4.6821   -0.7511 C   0  0  0  0  0  0  0  0  0  0  0  0
    2.0618    3.4679   -0.6384 C   0  0  0  0  0  0  0  0  0  0  0  0
    1.9695    5.8400   -1.3156 N   0  0  0  0  0  0  0  0  0  0  0  0
    3.0919    5.7880   -1.7194 O   0  0  0  0  0  0  0  0  0  0  0  0
    1.3578    6.8610   -1.4205 O   0  0  0  0  0  0  0  0  0  0  0  0
   -5.5543   -0.2060   -0.7789 H   0  0  0  0  0  0  0  0  0  0  0  0
   -4.5508    0.6076    0.4813 H   0  0  0  0  0  0  0  0  0  0  0  0
   -5.7191   -0.6956    0.9388 H   0  0  0  0  0  0  0  0  0  0  0  0
   -4.4123   -2.2788   -0.3084 H   0  0  0  0  0  0  0  0  0  0  0  0
   -2.5380    0.0115   -0.8282 H   0  0  0  0  0  0  0  0  0  0  0  0
   -3.5813   -0.8000   -2.0570 H   0  0  0  0  0  0  0  0  0  0  0  0
   -1.2289   -1.6376   -2.1050 H   0  0  0  0  0  0  0  0  0  0  0  0
   -2.3979   -2.9458   -1.7012 H   0  0  0  0  0  0  0  0  0  0  0  0
   -1.4904   -2.7476    1.9855 H   0  0  0  0  0  0  0  0  0  0  0  0
   -2.5511   -3.6531    0.8373 H   0  0  0  0  0  0  0  0  0  0  0  0
   -2.7175   -0.6504    1.5625 H   0  0  0  0  0  0  0  0  0  0  0  0
   -3.8843   -1.9334    2.0509 H   0  0  0  0  0  0  0  0  0  0  0  0
   -0.1517   -4.6021    0.2835 H   0  0  0  0  0  0  0  0  0  0  0  0
    1.7140   -6.1945    0.4890 H   0  0  0  0  0  0  0  0  0  0  0  0
    4.0546   -5.3926    0.5474 H   0  0  0  0  0  0  0  0  0  0  0  0
    4.5535   -2.9770    0.4038 H   0  0  0  0  0  0  0  0  0  0  0  0
   -0.4055    1.5528    0.7420 H   0  0  0  0  0  0  0  0  0  0  0  0
   -1.6212    3.6547    0.5732 H   0  0  0  0  0  0  0  0  0  0  0  0
   -0.5536    5.6542   -0.3710 H   0  0  0  0  0  0  0  0  0  0  0  0
    3.0893    3.4118   -0.9753 H   0  0  0  0  0  0  0  0  0  0  0  0
  1 30  1  0  0  0  0
  1 31  1  0  0  0  0
  1 32  1  0  0  0  0
  2  1  1  0  0  0  0
  2 33  1  0  0  0  0
  3  2  1  0  0  0  0
  3 34  1  0  0  0  0
  3 35  1  0  0  0  0
  4  3  1  0  0  0  0
  4 36  1  0  0  0  0
  4 37  1  0  0  0  0
  5  4  1  0  0  0  0
  6  5  1  0  0  0  0
  6 38  1  0  0  0  0
  6 39  1  0  0  0  0
  7  6  1  0  0  0  0
  7  2  1  0  0  0  0
  7 40  1  0  0  0  0
  7 41  1  0  0  0  0
  8  5  1  0  0  0  0
  9  8  2  0  0  0  0
 10  9  1  0  0  0  0
 11 10  1  0  0  0  0
 12 11  2  0  0  0  0
 13 12  1  0  0  0  0
 14 13  2  0  0  0  0
 14 10  1  0  0  0  0
 15 14  1  0  0  0  0
 16 15  2  0  0  0  0
 16  8  1  0  0  0  0
 17 16  1  0  0  0  0
 17 42  1  0  0  0  0
 18 17  2  0  0  0  0
 18 43  1  0  0  0  0
 19 18  1  0  0  0  0
 19 44  1  0  0  0  0
 20 19  2  0  0  0  0
 20 15  1  0  0  0  0
 20 45  1  0  0  0  0
 21 11  1  0  0  0  0
 22 21  2  0  0  0  0
 22 46  1  0  0  0  0
 23 22  1  0  0  0  0
 23 47  1  0  0  0  0
 24 23  2  0  0  0  0
 24 48  1  0  0  0  0
 25 24  1  0  0  0  0
 26 25  2  0  0  0  0
 26 21  1  0  0  0  0
 26 49  1  0  0  0  0
 27 25  1  0  0  0  0
 28 27  2  0  0  0  0
 29 27  2  0  0  0  0
M  CHG  1   2   1
M  END
>  <MOL Chiral Flag>
0

>  <energy>
177.18629203083506

$$$$
