>177.sdf
 OpenBabel10052220183D

 26 28  0  0  0  0  0  0  0  0999 V2000
   -6.7226    4.3894    1.6123 Cl  0  0  0  0  0  0  0  0  0  0  0  0
   -5.1842    3.5807    1.3740 C   0  0  0  0  0  0  0  0  0  0  0  0
   -4.5226    3.0020    2.4577 C   0  0  0  0  0  0  0  0  0  0  0  0
   -3.3022    2.3467    2.2682 C   0  0  0  0  0  0  0  0  0  0  0  0
   -2.7185    2.2631    0.9853 C   0  0  0  0  0  0  0  0  0  0  0  0
   -3.4007    2.8607   -0.1008 C   0  0  0  0  0  0  0  0  0  0  0  0
   -4.6228    3.5100    0.0986 C   0  0  0  0  0  0  0  0  0  0  0  0
   -1.4181    1.5261    0.8172 C   0  0  0  0  0  0  0  0  0  0  0  0
   -0.9536    0.9354    1.7836 O   0  0  0  0  0  0  0  0  0  0  0  0
   -0.7511    1.4972   -0.3780 N   0  0  0  0  0  0  0  0  0  0  0  0
    0.4442    0.7522   -0.5897 C   0  0  0  0  0  0  0  0  0  0  0  0
    1.0101   -0.1069    0.3116 N   0  0  0  0  0  0  0  0  0  0  0  0
    2.1311   -0.7091   -0.2188 C   0  0  0  0  0  0  0  0  0  0  0  0
    2.4517   -0.3346   -1.5119 C   0  0  0  0  0  0  0  0  0  0  0  0
    1.3214    0.7525   -2.0065 S   0  0  0  0  0  0  0  0  0  0  0  0
    3.5177   -0.8336   -2.1756 N   0  0  0  0  0  0  0  0  0  0  0  0
    4.3061   -1.7469   -1.5353 C   0  0  0  0  0  0  0  0  0  0  0  0
    5.6998   -2.4164   -2.3553 Cl  0  0  0  0  0  0  0  0  0  0  0  0
    4.0124   -2.1440   -0.2550 N   0  0  0  0  0  0  0  0  0  0  0  0
    2.9355   -1.6418    0.4198 C   0  0  0  0  0  0  0  0  0  0  0  0
   -4.9560    3.0550    3.4483 H   0  0  0  0  0  0  0  0  0  0  0  0
   -2.8140    1.9030    3.1268 H   0  0  0  0  0  0  0  0  0  0  0  0
   -3.0193    2.8255   -1.1071 H   0  0  0  0  0  0  0  0  0  0  0  0
   -5.1369    3.9544   -0.7444 H   0  0  0  0  0  0  0  0  0  0  0  0
   -1.1056    2.0268   -1.1814 H   0  0  0  0  0  0  0  0  0  0  0  0
    2.7180   -1.9702    1.4274 H   0  0  0  0  0  0  0  0  0  0  0  0
  2  1  1  0  0  0  0
  3  2  2  0  0  0  0
  3 21  1  0  0  0  0
  4  3  1  0  0  0  0
  4 22  1  0  0  0  0
  5  4  2  0  0  0  0
  6  5  1  0  0  0  0
  6 23  1  0  0  0  0
  7  6  2  0  0  0  0
  7  2  1  0  0  0  0
  7 24  1  0  0  0  0
  8  5  1  0  0  0  0
  9  8  2  0  0  0  0
 10  8  1  0  0  0  0
 10 25  1  0  0  0  0
 11 10  1  0  0  0  0
 12 11  2  0  0  0  0
 13 12  1  0  0  0  0
 14 13  2  0  0  0  0
 15 14  1  0  0  0  0
 15 11  1  0  0  0  0
 16 14  1  0  0  0  0
 17 16  2  0  0  0  0
 18 17  1  0  0  0  0
 19 17  1  0  0  0  0
 20 19  2  0  0  0  0
 20 13  1  0  0  0  0
 20 26  1  0  0  0  0
M  END
>  <MOL Chiral Flag>
0

>  <energy>
-1.1496587056857237

$$$$
