>178.sdf
 OpenBabel10052220193D

 53 56  0  0  0  0  0  0  0  0999 V2000
   -1.3615   -2.7185   -1.7588 C   0  0  0  0  0  0  0  0  0  0  0  0
   -1.8129   -1.3855   -1.3979 N   0  0  0  0  0  0  0  0  0  0  0  0
   -3.0638   -1.3169   -0.6094 C   0  0  2  0  0  0  0  0  0  0  0  0
   -3.9477   -0.0527   -0.7769 C   0  0  0  0  0  0  0  0  0  0  0  0
   -3.5439    1.1132    0.1465 C   0  0  0  0  0  0  0  0  0  0  0  0
   -3.4905    0.6543    1.5530 N   0  3  2  0  0  0  0  0  0  0  0  0
   -3.2560    1.7815    2.4694 C   0  0  0  0  0  0  0  0  0  0  0  0
   -2.4419   -0.3802    1.6961 C   0  0  0  0  0  0  0  0  0  0  0  0
   -2.8385   -1.6295    0.8887 C   0  0  0  0  0  0  0  0  0  0  0  0
   -0.7723   -0.4206   -1.2492 C   0  0  0  0  0  0  0  0  0  0  0  0
    0.4131   -0.7681   -0.6205 N   0  0  0  0  0  0  0  0  0  0  0  0
    1.4808    0.0905   -0.5666 C   0  0  0  0  0  0  0  0  0  0  0  0
    2.5936   -0.1632    0.3012 N   0  0  0  0  0  0  0  0  0  0  0  0
    2.6100    0.4750    1.5992 C   0  0  0  0  0  0  0  0  0  0  0  0
    3.9240    0.0058    2.2259 C   0  0  0  0  0  0  0  0  0  0  0  0
    4.2039   -1.2909    1.4604 C   0  0  0  0  0  0  0  0  0  0  0  0
    3.8609   -0.8424    0.0213 C   0  0  1  0  0  0  0  0  0  0  0  0
    3.9132   -2.0122   -1.0333 C   0  0  0  0  0  0  0  0  0  0  0  0
    5.0922   -1.9690   -1.9380 C   0  0  0  0  0  0  0  0  0  0  0  0
    5.9815   -1.9950   -2.6843 N   0  0  0  0  0  0  0  0  0  0  0  0
    1.3306    1.3242   -1.1824 C   0  0  0  0  0  0  0  0  0  0  0  0
    2.3461    2.6212   -1.2997 S   0  0  0  0  0  0  0  0  0  0  0  0
    1.3838    3.6168   -2.2322 C   0  0  0  0  0  0  0  0  0  0  0  0
    0.1814    2.9287   -2.4638 C   0  0  0  0  0  0  0  0  0  0  0  0
    0.1621    1.6487   -1.8522 C   0  0  0  0  0  0  0  0  0  0  0  0
   -0.8817    0.7852   -1.8821 N   0  0  0  0  0  0  0  0  0  0  0  0
   -2.2079   -3.3607   -2.0849 H   0  0  0  0  0  0  0  0  0  0  0  0
   -0.8395   -3.1901   -0.9028 H   0  0  0  0  0  0  0  0  0  0  0  0
   -0.6641   -2.6506   -2.6220 H   0  0  0  0  0  0  0  0  0  0  0  0
   -3.7028   -2.1388   -1.0084 H   0  0  0  0  0  0  0  0  0  0  0  0
   -4.9770   -0.3305   -0.4474 H   0  0  0  0  0  0  0  0  0  0  0  0
   -4.0238    0.2555   -1.8405 H   0  0  0  0  0  0  0  0  0  0  0  0
   -4.3086    1.9164    0.0370 H   0  0  0  0  0  0  0  0  0  0  0  0
   -2.5685    1.5428   -0.1554 H   0  0  0  0  0  0  0  0  0  0  0  0
   -4.4185    0.2448    1.8231 H   0  0  0  0  0  0  0  0  0  0  0  0
   -2.2956    2.2932    2.2489 H   0  0  0  0  0  0  0  0  0  0  0  0
   -3.2446    1.4251    3.5243 H   0  0  0  0  0  0  0  0  0  0  0  0
   -4.0874    2.5184    2.3913 H   0  0  0  0  0  0  0  0  0  0  0  0
   -2.3439   -0.6825    2.7627 H   0  0  0  0  0  0  0  0  0  0  0  0
   -1.4545    0.0149    1.3694 H   0  0  0  0  0  0  0  0  0  0  0  0
   -3.7992   -1.9860    1.3205 H   0  0  0  0  0  0  0  0  0  0  0  0
   -2.0985   -2.4474    1.0153 H   0  0  0  0  0  0  0  0  0  0  0  0
    1.7433    0.1050    2.1864 H   0  0  0  0  0  0  0  0  0  0  0  0
    2.5764    1.5846    1.5233 H   0  0  0  0  0  0  0  0  0  0  0  0
    3.9082   -0.0312    3.3373 H   0  0  0  0  0  0  0  0  0  0  0  0
    4.7346    0.7091    1.9350 H   0  0  0  0  0  0  0  0  0  0  0  0
    3.4647   -2.0588    1.8014 H   0  0  0  0  0  0  0  0  0  0  0  0
    5.2216   -1.6957    1.6287 H   0  0  0  0  0  0  0  0  0  0  0  0
    4.5975   -0.0350   -0.2416 H   0  0  0  0  0  0  0  0  0  0  0  0
    3.0381   -2.0273   -1.7039 H   0  0  0  0  0  0  0  0  0  0  0  0
    3.9412   -3.0080   -0.5356 H   0  0  0  0  0  0  0  0  0  0  0  0
    1.6380    4.6025   -2.5931 H   0  0  0  0  0  0  0  0  0  0  0  0
   -0.6372    3.3330   -3.0460 H   0  0  0  0  0  0  0  0  0  0  0  0
  1 27  1  0  0  0  0
  1 28  1  0  0  0  0
  1 29  1  0  0  0  0
  2  1  1  0  0  0  0
  3  2  1  0  0  0  0
  3 30  1  6  0  0  0
  4  3  1  0  0  0  0
  4 31  1  0  0  0  0
  4 32  1  0  0  0  0
  5  4  1  0  0  0  0
  5 33  1  0  0  0  0
  5 34  1  0  0  0  0
  6  5  1  0  0  0  0
  6 35  1  1  0  0  0
  7  6  1  0  0  0  0
  7 36  1  0  0  0  0
  7 37  1  0  0  0  0
  7 38  1  0  0  0  0
  8  6  1  0  0  0  0
  8 39  1  0  0  0  0
  8 40  1  0  0  0  0
  9  8  1  0  0  0  0
  9  3  1  0  0  0  0
  9 41  1  0  0  0  0
  9 42  1  0  0  0  0
 10  2  1  0  0  0  0
 11 10  2  0  0  0  0
 12 11  1  0  0  0  0
 13 12  1  0  0  0  0
 14 13  1  0  0  0  0
 14 43  1  0  0  0  0
 14 44  1  0  0  0  0
 15 14  1  0  0  0  0
 15 45  1  0  0  0  0
 15 46  1  0  0  0  0
 16 15  1  0  0  0  0
 16 47  1  0  0  0  0
 16 48  1  0  0  0  0
 17 16  1  0  0  0  0
 17 13  1  0  0  0  0
 17 49  1  6  0  0  0
 18 17  1  0  0  0  0
 18 50  1  0  0  0  0
 18 51  1  0  0  0  0
 19 18  1  0  0  0  0
 20 19  3  0  0  0  0
 21 12  2  0  0  0  0
 22 21  1  0  0  0  0
 23 22  1  0  0  0  0
 23 52  1  0  0  0  0
 24 23  2  0  0  0  0
 24 53  1  0  0  0  0
 25 24  1  0  0  0  0
 25 21  1  0  0  0  0
 26 25  2  0  0  0  0
 26 10  1  0  0  0  0
M  CHG  1   6   1
M  END
>  <MOL Chiral Flag>
0

>  <energy>
-47.499390999544033

$$$$
