>179.sdf
 OpenBabel10052220193D

 38 40  0  0  0  0  0  0  0  0999 V2000
   -9.0087    0.2314   -2.0154 Br  0  0  0  0  0  0  0  0  0  0  0  0
   -8.1628   -1.2737   -1.1957 C   0  0  0  0  0  0  0  0  0  0  0  0
   -6.7969   -1.2378   -0.9051 C   0  0  0  0  0  0  0  0  0  0  0  0
   -6.1655   -2.3484   -0.3317 C   0  0  0  0  0  0  0  0  0  0  0  0
   -6.8960   -3.5195   -0.0499 C   0  0  0  0  0  0  0  0  0  0  0  0
   -8.2839   -3.5290   -0.3231 C   0  0  0  0  0  0  0  0  0  0  0  0
   -8.9074   -2.4147   -0.8947 C   0  0  0  0  0  0  0  0  0  0  0  0
   -6.2353   -4.7631    0.4744 C   0  0  0  0  0  0  0  0  0  0  0  0
   -6.9405   -5.7255    0.7459 O   0  0  0  0  0  0  0  0  0  0  0  0
   -4.7245   -4.9287    0.6170 C   0  0  0  0  0  0  0  0  0  0  0  0
   -3.8290   -4.5557   -0.9449 S   0  0  0  0  0  0  0  0  0  0  0  0
   -2.3308   -3.7243   -0.3302 C   0  0  0  0  0  0  0  0  0  0  0  0
   -1.3819   -4.2877    0.4761 N   0  0  0  0  0  0  0  0  0  0  0  0
   -0.2359   -3.5672    0.5632 N   0  0  0  0  0  0  0  0  0  0  0  0
   -0.2498   -2.4333   -0.1950 C   0  0  0  0  0  0  0  0  0  0  0  0
   -1.7060   -2.3298   -0.9663 S   0  0  0  0  0  0  0  0  0  0  0  0
    0.8495   -1.5456   -0.4063 N   0  0  0  0  0  0  0  0  0  0  0  0
    2.0150   -1.6575    0.1455 C   0  0  0  0  0  0  0  0  0  0  0  0
    3.0892   -0.6582   -0.1502 C   0  0  0  0  0  0  0  0  0  0  0  0
    4.3077   -0.6932    0.5528 C   0  0  0  0  0  0  0  0  0  0  0  0
    5.3004    0.2690    0.3095 C   0  0  0  0  0  0  0  0  0  0  0  0
    5.0997    1.2806   -0.6494 C   0  0  0  0  0  0  0  0  0  0  0  0
    3.8910    1.2975   -1.3708 C   0  0  0  0  0  0  0  0  0  0  0  0
    2.8980    0.3425   -1.1219 C   0  0  0  0  0  0  0  0  0  0  0  0
    6.0981    2.2808   -0.8835 N   0  0  0  0  0  0  0  0  0  0  0  0
    7.1103    2.2832   -0.2448 O   0  0  0  0  0  0  0  0  0  0  0  0
    5.9155    3.1420   -1.6876 O   0  0  0  0  0  0  0  0  0  0  0  0
   -6.2198   -0.3522   -1.1363 H   0  0  0  0  0  0  0  0  0  0  0  0
   -5.1086   -2.2896   -0.1253 H   0  0  0  0  0  0  0  0  0  0  0  0
   -8.8837   -4.4075   -0.1188 H   0  0  0  0  0  0  0  0  0  0  0  0
   -9.9673   -2.4447   -1.1187 H   0  0  0  0  0  0  0  0  0  0  0  0
   -4.5182   -5.9994    0.8470 H   0  0  0  0  0  0  0  0  0  0  0  0
   -4.3445   -4.3188    1.4579 H   0  0  0  0  0  0  0  0  0  0  0  0
    2.2167   -2.4615    0.8498 H   0  0  0  0  0  0  0  0  0  0  0  0
    4.4860   -1.4535    1.3026 H   0  0  0  0  0  0  0  0  0  0  0  0
    6.2232    0.2303    0.8764 H   0  0  0  0  0  0  0  0  0  0  0  0
    3.7112    2.0578   -2.1204 H   0  0  0  0  0  0  0  0  0  0  0  0
    1.9776    0.3894   -1.6882 H   0  0  0  0  0  0  0  0  0  0  0  0
  2  1  1  0  0  0  0
  3  2  2  0  0  0  0
  3 28  1  0  0  0  0
  4  3  1  0  0  0  0
  4 29  1  0  0  0  0
  5  4  2  0  0  0  0
  6  5  1  0  0  0  0
  6 30  1  0  0  0  0
  7  6  2  0  0  0  0
  7  2  1  0  0  0  0
  7 31  1  0  0  0  0
  8  5  1  0  0  0  0
  9  8  2  0  0  0  0
 10  8  1  0  0  0  0
 10 32  1  0  0  0  0
 10 33  1  0  0  0  0
 11 10  1  0  0  0  0
 12 11  1  0  0  0  0
 13 12  2  0  0  0  0
 14 13  1  0  0  0  0
 15 14  2  0  0  0  0
 16 15  1  0  0  0  0
 16 12  1  0  0  0  0
 17 15  1  0  0  0  0
 18 17  2  0  0  0  0
 18 34  1  0  0  0  0
 19 18  1  0  0  0  0
 20 19  2  0  0  0  0
 20 35  1  0  0  0  0
 21 20  1  0  0  0  0
 21 36  1  0  0  0  0
 22 21  2  0  0  0  0
 23 22  1  0  0  0  0
 23 37  1  0  0  0  0
 24 23  2  0  0  0  0
 24 19  1  0  0  0  0
 24 38  1  0  0  0  0
 25 22  1  0  0  0  0
 26 25  2  0  0  0  0
 27 25  2  0  0  0  0
M  END
>  <MOL Chiral Flag>
0

>  <energy>
115.77424697594718

$$$$
