>186.sdf
 OpenBabel10052220253D

 36 38  0  0  0  0  0  0  0  0999 V2000
   -4.3756    0.1100   -0.0019 C   0  0  0  0  0  0  0  0  0  0  0  0
   -3.5607   -1.0640   -0.6087 C   0  0  0  0  0  0  0  0  0  0  0  0
   -2.2447   -0.5400   -1.1710 C   0  0  0  0  0  0  0  0  0  0  0  0
   -1.3537    0.0241   -0.0180 C   0  0  0  0  0  0  0  0  0  0  0  0
   -2.1996    0.6357    1.1449 C   0  0  0  0  0  0  0  0  0  0  0  0
   -3.4888    1.2349    0.5967 C   0  0  0  0  0  0  0  0  0  0  0  0
   -0.5125    1.0205   -0.5788 O   0  0  0  0  0  0  0  0  0  0  0  0
    0.5612    1.1217    0.2016 O   0  0  0  0  0  0  0  0  0  0  0  0
    1.3535   -0.0370   -0.0092 C   0  0  0  0  0  0  0  0  0  0  0  0
    2.2018   -0.2650    1.2833 C   0  0  0  0  0  0  0  0  0  0  0  0
    3.4965   -0.9919    0.9407 C   0  0  0  0  0  0  0  0  0  0  0  0
    4.3758   -0.0933    0.0300 C   0  0  0  0  0  0  0  0  0  0  0  0
    3.5533    0.8328   -0.9060 C   0  0  0  0  0  0  0  0  0  0  0  0
    2.2422    0.1521   -1.2803 C   0  0  0  0  0  0  0  0  0  0  0  0
    0.5127   -1.1573   -0.2398 O   0  0  0  0  0  0  0  0  0  0  0  0
   -0.5618   -1.0168    0.5339 O   0  0  0  0  0  0  0  0  0  0  0  0
   -5.0220    0.5929   -0.7665 H   0  0  0  0  0  0  0  0  0  0  0  0
   -5.0410   -0.3350    0.7693 H   0  0  0  0  0  0  0  0  0  0  0  0
   -3.2975   -1.8014    0.1820 H   0  0  0  0  0  0  0  0  0  0  0  0
   -4.1801   -1.5895   -1.3664 H   0  0  0  0  0  0  0  0  0  0  0  0
   -2.5157    0.2702   -1.8849 H   0  0  0  0  0  0  0  0  0  0  0  0
   -1.6850   -1.3080   -1.7469 H   0  0  0  0  0  0  0  0  0  0  0  0
   -1.5919    1.3698    1.7163 H   0  0  0  0  0  0  0  0  0  0  0  0
   -2.5086   -0.1590    1.8607 H   0  0  0  0  0  0  0  0  0  0  0  0
   -4.0691    1.7943    1.3611 H   0  0  0  0  0  0  0  0  0  0  0  0
   -3.1918    1.9569   -0.1964 H   0  0  0  0  0  0  0  0  0  0  0  0
    1.5982   -0.7969    2.0497 H   0  0  0  0  0  0  0  0  0  0  0  0
    2.5046    0.7105    1.7263 H   0  0  0  0  0  0  0  0  0  0  0  0
    4.0796   -1.2896    1.8381 H   0  0  0  0  0  0  0  0  0  0  0  0
    3.2065   -1.9219    0.4028 H   0  0  0  0  0  0  0  0  0  0  0  0
    5.0341    0.5715    0.6304 H   0  0  0  0  0  0  0  0  0  0  0  0
    5.0297   -0.7792   -0.5509 H   0  0  0  0  0  0  0  0  0  0  0  0
    4.1701    1.1066   -1.7885 H   0  0  0  0  0  0  0  0  0  0  0  0
    3.2830    1.7744   -0.3783 H   0  0  0  0  0  0  0  0  0  0  0  0
    2.5193   -0.8360   -1.7120 H   0  0  0  0  0  0  0  0  0  0  0  0
    1.6782    0.7031   -2.0632 H   0  0  0  0  0  0  0  0  0  0  0  0
  1 17  1  0  0  0  0
  1 18  1  0  0  0  0
  2  1  1  0  0  0  0
  2 19  1  0  0  0  0
  2 20  1  0  0  0  0
  3  2  1  0  0  0  0
  3 21  1  0  0  0  0
  3 22  1  0  0  0  0
  4  3  1  0  0  0  0
  5  4  1  0  0  0  0
  5 23  1  0  0  0  0
  5 24  1  0  0  0  0
  6  5  1  0  0  0  0
  6  1  1  0  0  0  0
  6 25  1  0  0  0  0
  6 26  1  0  0  0  0
  7  4  1  0  0  0  0
  8  7  1  0  0  0  0
  9  8  1  0  0  0  0
 10  9  1  0  0  0  0
 10 27  1  0  0  0  0
 10 28  1  0  0  0  0
 11 10  1  0  0  0  0
 11 29  1  0  0  0  0
 11 30  1  0  0  0  0
 12 11  1  0  0  0  0
 12 31  1  0  0  0  0
 12 32  1  0  0  0  0
 13 12  1  0  0  0  0
 13 33  1  0  0  0  0
 13 34  1  0  0  0  0
 14 13  1  0  0  0  0
 14  9  1  0  0  0  0
 14 35  1  0  0  0  0
 14 36  1  0  0  0  0
 15  9  1  0  0  0  0
 16 15  1  0  0  0  0
 16  4  1  0  0  0  0
M  END
>  <MOL Chiral Flag>
0

>  <energy>
75.198570097407838

$$$$
