>187.sdf
 OpenBabel10052220253D

 33 35  0  0  0  0  0  0  0  0999 V2000
   -2.5143    1.8956   -1.7616 C   0  0  0  0  0  0  0  0  0  0  0  0
   -2.5283    0.7869   -0.8106 N   0  0  0  0  0  0  0  0  0  0  0  0
   -3.6304    0.2584   -0.2446 C   0  0  0  0  0  0  0  0  0  0  0  0
   -3.2265   -0.7558    0.5956 C   0  0  0  0  0  0  0  0  0  0  0  0
   -1.8884   -0.8725    0.5544 N   0  0  0  0  0  0  0  0  0  0  0  0
   -1.4798    0.0861   -0.3057 C   0  0  0  0  0  0  0  0  0  0  0  0
   -0.0371    0.3476   -0.5434 C   0  0  0  0  0  0  0  0  0  0  0  0
    0.3238    1.3496   -1.1439 O   0  0  0  0  0  0  0  0  0  0  0  0
    0.8793   -0.5204   -0.0316 N   0  0  0  0  0  0  0  0  0  0  0  0
    2.2670   -0.2383    0.0616 C   0  0  0  0  0  0  0  0  0  0  0  0
    3.2144   -0.9047   -0.7407 C   0  0  0  0  0  0  0  0  0  0  0  0
    2.8324   -1.7755   -1.7774 C   0  0  0  0  0  0  0  0  0  0  0  0
    3.8084   -2.4173   -2.5479 C   0  0  0  0  0  0  0  0  0  0  0  0
    5.1654   -2.2088   -2.2838 C   0  0  0  0  0  0  0  0  0  0  0  0
    5.5568   -1.3457   -1.2578 C   0  0  0  0  0  0  0  0  0  0  0  0
    4.5916   -0.6844   -0.4915 C   0  0  0  0  0  0  0  0  0  0  0  0
    4.9800    0.1589    0.5027 N   0  0  0  0  0  0  0  0  0  0  0  0
    4.0756    0.8140    1.2759 C   0  0  0  0  0  0  0  0  0  0  0  0
    2.7094    0.6260    1.0702 C   0  0  0  0  0  0  0  0  0  0  0  0
   -4.0563   -1.5536    1.4229 N   0  0  0  0  0  0  0  0  0  0  0  0
   -5.2354   -1.3674    1.4517 O   0  0  0  0  0  0  0  0  0  0  0  0
   -3.5717   -2.3832    2.1305 O   0  0  0  0  0  0  0  0  0  0  0  0
   -1.9257    2.7421   -1.3536 H   0  0  0  0  0  0  0  0  0  0  0  0
   -2.0737    1.5586   -2.7235 H   0  0  0  0  0  0  0  0  0  0  0  0
   -3.5497    2.2511   -1.9589 H   0  0  0  0  0  0  0  0  0  0  0  0
   -4.6448    0.5951   -0.4185 H   0  0  0  0  0  0  0  0  0  0  0  0
    0.5535   -1.3800    0.4335 H   0  0  0  0  0  0  0  0  0  0  0  0
    1.7871   -1.9497   -1.9999 H   0  0  0  0  0  0  0  0  0  0  0  0
    3.5126   -3.0799   -3.3508 H   0  0  0  0  0  0  0  0  0  0  0  0
    5.9159   -2.7155   -2.8767 H   0  0  0  0  0  0  0  0  0  0  0  0
    6.6102   -1.1913   -1.0578 H   0  0  0  0  0  0  0  0  0  0  0  0
    4.4175    1.4637    2.0705 H   0  0  0  0  0  0  0  0  0  0  0  0
    1.9948    1.1226    1.7151 H   0  0  0  0  0  0  0  0  0  0  0  0
  1 23  1  0  0  0  0
  1 24  1  0  0  0  0
  1 25  1  0  0  0  0
  2  1  1  0  0  0  0
  3  2  1  0  0  0  0
  3 26  1  0  0  0  0
  4  3  2  0  0  0  0
  5  4  1  0  0  0  0
  6  5  2  0  0  0  0
  6  2  1  0  0  0  0
  7  6  1  0  0  0  0
  8  7  2  0  0  0  0
  9  7  1  0  0  0  0
  9 27  1  0  0  0  0
 10  9  1  0  0  0  0
 11 10  2  0  0  0  0
 12 11  1  0  0  0  0
 12 28  1  0  0  0  0
 13 12  2  0  0  0  0
 13 29  1  0  0  0  0
 14 13  1  0  0  0  0
 14 30  1  0  0  0  0
 15 14  2  0  0  0  0
 15 31  1  0  0  0  0
 16 15  1  0  0  0  0
 16 11  1  0  0  0  0
 17 16  2  0  0  0  0
 18 17  1  0  0  0  0
 18 32  1  0  0  0  0
 19 18  2  0  0  0  0
 19 10  1  0  0  0  0
 19 33  1  0  0  0  0
 20  4  1  0  0  0  0
 21 20  2  0  0  0  0
 22 20  2  0  0  0  0
M  END
>  <MOL Chiral Flag>
0

>  <energy>
125.9333727439718

$$$$
