>195.sdf
 OpenBabel10052220283D

 43 47  0  0  0  0  0  0  0  0999 V2000
   -6.0431    0.1271   -0.2125 O   0  0  0  0  0  0  0  0  0  0  0  0
   -4.8486   -0.0981   -0.3321 C   0  0  0  0  0  0  0  0  0  0  0  0
   -4.0220   -0.5302    0.8417 C   0  0  0  0  0  0  0  0  0  0  0  0
   -2.8866    0.4879    1.0310 C   0  0  0  0  0  0  0  0  0  0  0  0
   -2.0531    0.6582   -0.2803 C   0  0  0  0  0  0  0  0  0  0  0  0
   -3.0046    1.1190   -1.4151 C   0  0  0  0  0  0  0  0  0  0  0  0
   -4.1486    0.1163   -1.6402 C   0  0  0  0  0  0  0  0  0  0  0  0
   -1.0471    1.6458   -0.1427 O   0  0  0  0  0  0  0  0  0  0  0  0
   -0.1826    1.2594    0.7956 O   0  0  0  0  0  0  0  0  0  0  0  0
    0.4453    0.0570    0.3801 C   0  0  2  0  0  0  0  0  0  0  0  0
   -0.5663   -0.9297    0.2542 O   0  0  0  0  0  0  0  0  0  0  0  0
   -1.4302   -0.5490   -0.6869 O   0  0  0  0  0  0  0  0  0  0  0  0
    1.4280   -0.3919    1.5014 C   0  0  2  0  0  0  0  0  0  0  0  0
    2.5273    0.6792    1.7089 C   0  0  0  0  0  0  0  0  0  0  0  0
    3.3257    0.8630    0.3999 C   0  0  1  0  0  0  0  0  0  0  0  0
    3.9897   -0.4761    0.0107 C   0  0  0  0  0  0  0  0  0  0  0  0
    2.8997   -1.5509   -0.1953 C   0  0  1  0  0  0  0  0  0  0  0  0
    2.1024   -1.7313    1.1149 C   0  0  0  0  0  0  0  0  0  0  0  0
    1.9452   -1.1035   -1.3239 C   0  0  0  0  0  0  0  0  0  0  0  0
    1.2747    0.2370   -0.9385 C   0  0  2  0  0  0  0  0  0  0  0  0
    2.3707    1.3094   -0.7286 C   0  0  0  0  0  0  0  0  0  0  0  0
   -3.5907   -1.5321    0.6295 H   0  0  0  0  0  0  0  0  0  0  0  0
   -4.6390   -0.5993    1.7638 H   0  0  0  0  0  0  0  0  0  0  0  0
   -3.3277    1.4721    1.3061 H   0  0  0  0  0  0  0  0  0  0  0  0
   -2.2451    0.1608    1.8766 H   0  0  0  0  0  0  0  0  0  0  0  0
   -2.4378    1.2491   -2.3626 H   0  0  0  0  0  0  0  0  0  0  0  0
   -3.4425    2.1054   -1.1418 H   0  0  0  0  0  0  0  0  0  0  0  0
   -3.7313   -0.8533   -1.9870 H   0  0  0  0  0  0  0  0  0  0  0  0
   -4.8503    0.4945   -2.4153 H   0  0  0  0  0  0  0  0  0  0  0  0
    0.8673   -0.5274    2.4525 H   0  0  0  0  0  0  0  0  0  0  0  0
    3.2133    0.3647    2.5264 H   0  0  0  0  0  0  0  0  0  0  0  0
    2.0710    1.6461    2.0134 H   0  0  0  0  0  0  0  0  0  0  0  0
    4.1121    1.6346    0.5491 H   0  0  0  0  0  0  0  0  0  0  0  0
    4.5794   -0.3498   -0.9241 H   0  0  0  0  0  0  0  0  0  0  0  0
    4.6932   -0.7974    0.8101 H   0  0  0  0  0  0  0  0  0  0  0  0
    3.3799   -2.5142   -0.4738 H   0  0  0  0  0  0  0  0  0  0  0  0
    2.7860   -2.0598    1.9289 H   0  0  0  0  0  0  0  0  0  0  0  0
    1.3356   -2.5255    0.9859 H   0  0  0  0  0  0  0  0  0  0  0  0
    2.5151   -0.9827   -2.2714 H   0  0  0  0  0  0  0  0  0  0  0  0
    1.1711   -1.8824   -1.4974 H   0  0  0  0  0  0  0  0  0  0  0  0
    0.6136    0.5592   -1.7717 H   0  0  0  0  0  0  0  0  0  0  0  0
    1.9063    2.2855   -0.4689 H   0  0  0  0  0  0  0  0  0  0  0  0
    2.9445    1.4531   -1.6705 H   0  0  0  0  0  0  0  0  0  0  0  0
  2  1  2  0  0  0  0
  3  2  1  0  0  0  0
  3 22  1  0  0  0  0
  3 23  1  0  0  0  0
  4  3  1  0  0  0  0
  4 24  1  0  0  0  0
  4 25  1  0  0  0  0
  5  4  1  0  0  0  0
  6  5  1  0  0  0  0
  6 26  1  0  0  0  0
  6 27  1  0  0  0  0
  7  6  1  0  0  0  0
  7  2  1  0  0  0  0
  7 28  1  0  0  0  0
  7 29  1  0  0  0  0
  8  5  1  0  0  0  0
  9  8  1  0  0  0  0
 10  9  1  1  0  0  0
 11 10  1  0  0  0  0
 12 11  1  0  0  0  0
 12  5  1  0  0  0  0
 13 10  1  0  0  0  0
 13 30  1  1  0  0  0
 14 13  1  0  0  0  0
 14 31  1  0  0  0  0
 14 32  1  0  0  0  0
 15 14  1  0  0  0  0
 15 33  1  1  0  0  0
 16 15  1  0  0  0  0
 16 34  1  0  0  0  0
 16 35  1  0  0  0  0
 17 16  1  0  0  0  0
 17 36  1  6  0  0  0
 18 17  1  0  0  0  0
 18 13  1  0  0  0  0
 18 37  1  0  0  0  0
 18 38  1  0  0  0  0
 19 17  1  0  0  0  0
 19 39  1  0  0  0  0
 19 40  1  0  0  0  0
 20 19  1  0  0  0  0
 20 10  1  0  0  0  0
 20 41  1  6  0  0  0
 21 20  1  0  0  0  0
 21 15  1  0  0  0  0
 21 42  1  0  0  0  0
 21 43  1  0  0  0  0
M  END
>  <MOL Chiral Flag>
0

>  <energy>
79.87824516262593

$$$$
