>197.sdf
 OpenBabel10052220293D

 58 61  0  0  0  0  0  0  0  0999 V2000
   -2.3658    1.5101   -3.2359 C   0  0  0  0  0  0  0  0  0  0  0  0
   -3.8373    1.5923   -2.8639 C   0  0  0  0  0  0  0  0  0  0  0  0
   -4.4435    1.3421   -1.6858 C   0  0  0  0  0  0  0  0  0  0  0  0
   -5.9192    1.5430   -1.5170 C   0  0  0  0  0  0  0  0  0  0  0  0
   -6.8162    1.4969   -2.6111 C   0  0  0  0  0  0  0  0  0  0  0  0
   -8.1831    1.7145   -2.4187 C   0  0  0  0  0  0  0  0  0  0  0  0
   -8.6759    1.9945   -1.1449 C   0  0  0  0  0  0  0  0  0  0  0  0
   -7.8045    2.0407   -0.0546 C   0  0  0  0  0  0  0  0  0  0  0  0
   -6.4350    1.8045   -0.2346 C   0  0  0  0  0  0  0  0  0  0  0  0
   -1.3434    0.9186   -2.3271 N   0  3  2  0  0  0  0  0  0  0  0  0
   -1.0828    1.6894   -1.0845 C   0  0  0  0  0  0  0  0  0  0  0  0
    0.0583    1.0325   -0.2590 C   0  0  0  0  0  0  0  0  0  0  0  0
    1.3045    0.9720   -1.0614 N   0  3  2  0  0  0  0  0  0  0  0  0
    1.0784    0.2626   -2.3413 C   0  0  0  0  0  0  0  0  0  0  0  0
   -0.0801    0.8865   -3.1167 C   0  0  0  0  0  0  0  0  0  0  0  0
    2.5442    0.5057   -0.3541 C   0  0  0  0  0  0  0  0  0  0  0  0
    2.7978   -1.0107   -0.1902 C   0  0  0  0  0  0  0  0  0  0  0  0
    1.7945   -2.0064   -0.1982 C   0  0  0  0  0  0  0  0  0  0  0  0
    2.1351   -3.3575   -0.0614 C   0  0  0  0  0  0  0  0  0  0  0  0
    3.4668   -3.7380    0.0962 C   0  0  0  0  0  0  0  0  0  0  0  0
    4.4676   -2.7700    0.1262 C   0  0  0  0  0  0  0  0  0  0  0  0
    4.1380   -1.4205   -0.0126 C   0  0  0  0  0  0  0  0  0  0  0  0
    2.8248    1.2830    0.9373 C   0  0  0  0  0  0  0  0  0  0  0  0
    3.0712    2.6688    0.8739 C   0  0  0  0  0  0  0  0  0  0  0  0
    3.3525    3.3927    2.0379 C   0  0  0  0  0  0  0  0  0  0  0  0
    3.3882    2.7482    3.2749 C   0  0  0  0  0  0  0  0  0  0  0  0
    3.1409    1.3773    3.3552 C   0  0  0  0  0  0  0  0  0  0  0  0
    2.8609    0.6458    2.1977 C   0  0  0  0  0  0  0  0  0  0  0  0
   -2.0587    2.5368   -3.5357 H   0  0  0  0  0  0  0  0  0  0  0  0
   -2.3868    0.8897   -4.1618 H   0  0  0  0  0  0  0  0  0  0  0  0
   -4.4519    1.9462   -3.6811 H   0  0  0  0  0  0  0  0  0  0  0  0
   -3.8748    1.0505   -0.8199 H   0  0  0  0  0  0  0  0  0  0  0  0
   -6.4759    1.2757   -3.6119 H   0  0  0  0  0  0  0  0  0  0  0  0
   -8.8607    1.6689   -3.2624 H   0  0  0  0  0  0  0  0  0  0  0  0
   -9.7344    2.1748   -1.0038 H   0  0  0  0  0  0  0  0  0  0  0  0
   -8.1911    2.2651    0.9312 H   0  0  0  0  0  0  0  0  0  0  0  0
   -5.7736    1.8562    0.6209 H   0  0  0  0  0  0  0  0  0  0  0  0
   -1.6291   -0.0603   -2.0845 H   0  0  0  0  0  0  0  0  0  0  0  0
   -1.9666    1.7406   -0.4314 H   0  0  0  0  0  0  0  0  0  0  0  0
   -0.8020    2.7376   -1.3328 H   0  0  0  0  0  0  0  0  0  0  0  0
   -0.2692    0.0306    0.0697 H   0  0  0  0  0  0  0  0  0  0  0  0
    0.2160    1.6459    0.6546 H   0  0  0  0  0  0  0  0  0  0  0  0
    1.5049    1.9682   -1.3230 H   0  0  0  0  0  0  0  0  0  0  0  0
    0.8248   -0.7988   -2.1976 H   0  0  0  0  0  0  0  0  0  0  0  0
    1.9926    0.3109   -2.9753 H   0  0  0  0  0  0  0  0  0  0  0  0
   -0.2096    0.2972   -4.0530 H   0  0  0  0  0  0  0  0  0  0  0  0
    0.2177    1.9219   -3.4070 H   0  0  0  0  0  0  0  0  0  0  0  0
    3.3773    0.7904   -1.0417 H   0  0  0  0  0  0  0  0  0  0  0  0
    0.7554   -1.7704   -0.3042 H   0  0  0  0  0  0  0  0  0  0  0  0
    1.3596   -4.1123   -0.0780 H   0  0  0  0  0  0  0  0  0  0  0  0
    3.7243   -4.7844    0.1995 H   0  0  0  0  0  0  0  0  0  0  0  0
    5.5015   -3.0632    0.2536 H   0  0  0  0  0  0  0  0  0  0  0  0
    4.9340   -0.6851    0.0095 H   0  0  0  0  0  0  0  0  0  0  0  0
    3.0585    3.1856   -0.0760 H   0  0  0  0  0  0  0  0  0  0  0  0
    3.5478    4.4558    1.9785 H   0  0  0  0  0  0  0  0  0  0  0  0
    3.6088    3.3103    4.1735 H   0  0  0  0  0  0  0  0  0  0  0  0
    3.1685    0.8787    4.3153 H   0  0  0  0  0  0  0  0  0  0  0  0
    2.6733   -0.4151    2.2946 H   0  0  0  0  0  0  0  0  0  0  0  0
  1 29  1  0  0  0  0
  1 30  1  0  0  0  0
  2  1  1  0  0  0  0
  2 31  1  0  0  0  0
  3  2  2  0  0  0  0
  3 32  1  0  0  0  0
  4  3  1  0  0  0  0
  5  4  2  0  0  0  0
  5 33  1  0  0  0  0
  6  5  1  0  0  0  0
  6 34  1  0  0  0  0
  7  6  2  0  0  0  0
  7 35  1  0  0  0  0
  8  7  1  0  0  0  0
  8 36  1  0  0  0  0
  9  8  2  0  0  0  0
  9  4  1  0  0  0  0
  9 37  1  0  0  0  0
 10  1  1  0  0  0  0
 10 38  1  1  0  0  0
 11 10  1  0  0  0  0
 11 39  1  0  0  0  0
 11 40  1  0  0  0  0
 12 11  1  0  0  0  0
 12 41  1  0  0  0  0
 12 42  1  0  0  0  0
 13 12  1  0  0  0  0
 13 43  1  6  0  0  0
 14 13  1  0  0  0  0
 14 44  1  0  0  0  0
 14 45  1  0  0  0  0
 15 14  1  0  0  0  0
 15 10  1  0  0  0  0
 15 46  1  0  0  0  0
 15 47  1  0  0  0  0
 16 13  1  0  0  0  0
 16 48  1  0  0  0  0
 17 16  1  0  0  0  0
 18 17  2  0  0  0  0
 18 49  1  0  0  0  0
 19 18  1  0  0  0  0
 19 50  1  0  0  0  0
 20 19  2  0  0  0  0
 20 51  1  0  0  0  0
 21 20  1  0  0  0  0
 21 52  1  0  0  0  0
 22 21  2  0  0  0  0
 22 17  1  0  0  0  0
 22 53  1  0  0  0  0
 23 16  1  0  0  0  0
 24 23  2  0  0  0  0
 24 54  1  0  0  0  0
 25 24  1  0  0  0  0
 25 55  1  0  0  0  0
 26 25  2  0  0  0  0
 26 56  1  0  0  0  0
 27 26  1  0  0  0  0
 27 57  1  0  0  0  0
 28 27  2  0  0  0  0
 28 23  1  0  0  0  0
 28 58  1  0  0  0  0
M  CHG  2  10   1  13   1
M  END
>  <MOL Chiral Flag>
0

>  <energy>
138.82874508383151

$$$$
