>198.sdf
 OpenBabel10052220293D

 47 50  0  0  0  0  0  0  0  0999 V2000
    4.6248    0.5769    1.7595 C   0  0  0  0  0  0  0  0  0  0  0  0
    3.7239    0.5635    0.6516 O   0  0  0  0  0  0  0  0  0  0  0  0
    4.1281   -0.3955   -0.2526 C   0  0  0  0  0  0  0  0  0  0  0  0
    3.5611   -1.6926   -0.2736 C   0  0  0  0  0  0  0  0  0  0  0  0
    4.1294   -2.6247   -1.1503 C   0  0  0  0  0  0  0  0  0  0  0  0
    3.4996   -3.8274   -0.9370 N   0  0  0  0  0  0  0  0  0  0  0  0
    2.4706   -3.6695   -0.0499 C   0  0  0  0  0  0  0  0  0  0  0  0
    2.4174   -2.3344    0.3158 C   0  0  0  0  0  0  0  0  0  0  0  0
    1.2418   -1.7568    0.9407 C   0  0  0  0  0  0  0  0  0  0  0  0
    1.1368   -0.4749    1.0712 N   0  0  0  0  0  0  0  0  0  0  0  0
   -0.1478   -0.0359    0.9974 C   0  0  0  0  0  0  0  0  0  0  0  0
   -0.7737    0.4440   -0.1364 C   0  0  0  0  0  0  0  0  0  0  0  0
   -0.0361    0.6710   -1.3522 C   0  0  0  0  0  0  0  0  0  0  0  0
    0.4983    0.8680   -2.3622 N   0  0  0  0  0  0  0  0  0  0  0  0
   -2.2079    0.5505   -0.0040 C   0  0  0  0  0  0  0  0  0  0  0  0
   -2.5790    0.4029    1.3280 C   0  0  0  0  0  0  0  0  0  0  0  0
   -3.8987    0.5026    2.0484 C   0  0  0  0  0  0  0  0  0  0  0  0
   -5.1343    0.8251    1.2167 C   0  0  0  0  0  0  0  0  0  0  0  0
   -5.1652    2.2582    0.6776 C   0  0  0  0  0  0  0  0  0  0  0  0
   -5.0622    2.3468   -0.8419 C   0  0  0  0  0  0  0  0  0  0  0  0
   -3.6529    2.1475   -1.3947 C   0  0  0  0  0  0  0  0  0  0  0  0
   -3.1052    0.7393   -1.2040 C   0  0  0  0  0  0  0  0  0  0  0  0
   -1.2181   -0.0144    2.3197 S   0  0  0  0  0  0  0  0  0  0  0  0
    5.1333   -2.2928   -2.0706 C   0  0  0  0  0  0  0  0  0  0  0  0
    5.5958   -0.9749   -2.0889 C   0  0  0  0  0  0  0  0  0  0  0  0
    5.1160   -0.0404   -1.1790 C   0  0  0  0  0  0  0  0  0  0  0  0
    4.8688   -0.4324    2.1130 H   0  0  0  0  0  0  0  0  0  0  0  0
    4.1457    1.1149    2.5827 H   0  0  0  0  0  0  0  0  0  0  0  0
    5.5429    1.1123    1.4932 H   0  0  0  0  0  0  0  0  0  0  0  0
    3.7143   -4.6796   -1.4364 H   0  0  0  0  0  0  0  0  0  0  0  0
    1.7998   -4.4934    0.1567 H   0  0  0  0  0  0  0  0  0  0  0  0
    0.3908   -2.4478    1.0990 H   0  0  0  0  0  0  0  0  0  0  0  0
   -3.8092    1.2546    2.8444 H   0  0  0  0  0  0  0  0  0  0  0  0
   -4.0833   -0.4569    2.5507 H   0  0  0  0  0  0  0  0  0  0  0  0
   -5.9986    0.7135    1.8858 H   0  0  0  0  0  0  0  0  0  0  0  0
   -5.2889    0.0798    0.4304 H   0  0  0  0  0  0  0  0  0  0  0  0
   -6.1327    2.6953    0.9575 H   0  0  0  0  0  0  0  0  0  0  0  0
   -4.4009    2.8876    1.1478 H   0  0  0  0  0  0  0  0  0  0  0  0
   -5.4014    3.3441   -1.1494 H   0  0  0  0  0  0  0  0  0  0  0  0
   -5.7537    1.6348   -1.3104 H   0  0  0  0  0  0  0  0  0  0  0  0
   -2.9710    2.9035   -0.9881 H   0  0  0  0  0  0  0  0  0  0  0  0
   -3.7129    2.3369   -2.4752 H   0  0  0  0  0  0  0  0  0  0  0  0
   -2.5276    0.4946   -2.1054 H   0  0  0  0  0  0  0  0  0  0  0  0
   -3.9012   -0.0122   -1.1988 H   0  0  0  0  0  0  0  0  0  0  0  0
    5.5149   -3.0208   -2.7793 H   0  0  0  0  0  0  0  0  0  0  0  0
    6.3423   -0.6756   -2.8202 H   0  0  0  0  0  0  0  0  0  0  0  0
    5.4946    0.9778   -1.1926 H   0  0  0  0  0  0  0  0  0  0  0  0
  1 27  1  0  0  0  0
  1 28  1  0  0  0  0
  1 29  1  0  0  0  0
  2  1  1  0  0  0  0
  3  2  1  0  0  0  0
  4  3  2  0  0  0  0
  5  4  1  0  0  0  0
  6  5  1  0  0  0  0
  6 30  1  0  0  0  0
  7  6  1  0  0  0  0
  7 31  1  0  0  0  0
  8  7  2  0  0  0  0
  8  4  1  0  0  0  0
  9  8  1  0  0  0  0
  9 32  1  0  0  0  0
 10  9  2  0  0  0  0
 11 10  1  0  0  0  0
 12 11  2  0  0  0  0
 13 12  1  0  0  0  0
 14 13  3  0  0  0  0
 15 12  1  0  0  0  0
 16 15  2  0  0  0  0
 17 16  1  0  0  0  0
 17 33  1  0  0  0  0
 17 34  1  0  0  0  0
 18 17  1  0  0  0  0
 18 35  1  0  0  0  0
 18 36  1  0  0  0  0
 19 18  1  0  0  0  0
 19 37  1  0  0  0  0
 19 38  1  0  0  0  0
 20 19  1  0  0  0  0
 20 39  1  0  0  0  0
 20 40  1  0  0  0  0
 21 20  1  0  0  0  0
 21 41  1  0  0  0  0
 21 42  1  0  0  0  0
 22 21  1  0  0  0  0
 22 15  1  0  0  0  0
 22 43  1  0  0  0  0
 22 44  1  0  0  0  0
 23 16  1  0  0  0  0
 23 11  1  0  0  0  0
 24  5  2  0  0  0  0
 24 45  1  0  0  0  0
 25 24  1  0  0  0  0
 25 46  1  0  0  0  0
 26 25  2  0  0  0  0
 26  3  1  0  0  0  0
 26 47  1  0  0  0  0
M  END
>  <MOL Chiral Flag>
0

>  <energy>
96.405745373107578

$$$$
