>199.sdf
 OpenBabel10052220293D

 36 38  0  0  0  0  0  0  0  0999 V2000
   -3.5365    2.3522   -0.3252 C   0  0  0  0  0  0  0  0  0  0  0  0
   -2.7223    1.2483   -0.2041 O   0  0  0  0  0  0  0  0  0  0  0  0
   -2.7882    0.1058   -0.9444 C   0  0  0  0  0  0  0  0  0  0  0  0
   -3.7619   -0.0743   -1.9445 C   0  0  0  0  0  0  0  0  0  0  0  0
   -3.7934   -1.2549   -2.6878 C   0  0  0  0  0  0  0  0  0  0  0  0
   -2.8519   -2.2606   -2.4518 C   0  0  0  0  0  0  0  0  0  0  0  0
   -1.8744   -2.0950   -1.4628 C   0  0  0  0  0  0  0  0  0  0  0  0
   -1.8431   -0.9166   -0.6982 C   0  0  0  0  0  0  0  0  0  0  0  0
   -0.8697   -0.7107    0.3978 C   0  0  0  0  0  0  0  0  0  0  0  0
    0.1242   -1.4898    0.6625 N   0  0  0  0  0  0  0  0  0  0  0  0
    0.8736   -1.2063    1.7848 N   0  0  0  0  0  0  0  0  0  0  0  0
    2.2660   -1.5039    1.8977 C   0  0  0  0  0  0  0  0  0  0  0  0
    2.8849   -2.3759    0.9859 C   0  0  0  0  0  0  0  0  0  0  0  0
    4.2503   -2.6500    1.1002 C   0  0  0  0  0  0  0  0  0  0  0  0
    4.9895   -2.0700    2.0799 N   0  0  0  0  0  0  0  0  0  0  0  0
    4.4430   -1.2099    2.9787 C   0  0  0  0  0  0  0  0  0  0  0  0
    5.2584   -0.6207    3.9560 C   0  0  0  0  0  0  0  0  0  0  0  0
    4.7182    0.2801    4.8774 C   0  0  0  0  0  0  0  0  0  0  0  0
    5.7406    1.0256    6.0917 Cl  0  0  0  0  0  0  0  0  0  0  0  0
    3.3634    0.5954    4.8302 C   0  0  0  0  0  0  0  0  0  0  0  0
    2.5378    0.0179    3.8688 C   0  0  0  0  0  0  0  0  0  0  0  0
    3.0607   -0.9004    2.9198 C   0  0  0  0  0  0  0  0  0  0  0  0
   -4.5874    2.0804   -0.0963 H   0  0  0  0  0  0  0  0  0  0  0  0
   -3.4527    2.7824   -1.3452 H   0  0  0  0  0  0  0  0  0  0  0  0
   -3.2018    3.1186    0.4054 H   0  0  0  0  0  0  0  0  0  0  0  0
   -4.4976    0.6926   -2.1469 H   0  0  0  0  0  0  0  0  0  0  0  0
   -4.5512   -1.3889   -3.4492 H   0  0  0  0  0  0  0  0  0  0  0  0
   -2.8865   -3.1731   -3.0326 H   0  0  0  0  0  0  0  0  0  0  0  0
   -1.1606   -2.8889   -1.2836 H   0  0  0  0  0  0  0  0  0  0  0  0
   -1.0143    0.1632    1.0272 H   0  0  0  0  0  0  0  0  0  0  0  0
    0.4257   -0.6414    2.5115 H   0  0  0  0  0  0  0  0  0  0  0  0
    2.3164   -2.8476    0.1950 H   0  0  0  0  0  0  0  0  0  0  0  0
    4.7275   -3.3259    0.4027 H   0  0  0  0  0  0  0  0  0  0  0  0
    6.3143   -0.8561    3.9959 H   0  0  0  0  0  0  0  0  0  0  0  0
    2.9421    1.2976    5.5396 H   0  0  0  0  0  0  0  0  0  0  0  0
    1.5075    0.3199    3.8933 H   0  0  0  0  0  0  0  0  0  0  0  0
  1 23  1  0  0  0  0
  1 24  1  0  0  0  0
  1 25  1  0  0  0  0
  2  1  1  0  0  0  0
  3  2  1  0  0  0  0
  4  3  2  0  0  0  0
  4 26  1  0  0  0  0
  5  4  1  0  0  0  0
  5 27  1  0  0  0  0
  6  5  2  0  0  0  0
  6 28  1  0  0  0  0
  7  6  1  0  0  0  0
  7 29  1  0  0  0  0
  8  7  2  0  0  0  0
  8  3  1  0  0  0  0
  9  8  1  0  0  0  0
  9 30  1  0  0  0  0
 10  9  2  0  0  0  0
 11 10  1  0  0  0  0
 11 31  1  0  0  0  0
 12 11  1  0  0  0  0
 13 12  2  0  0  0  0
 13 32  1  0  0  0  0
 14 13  1  0  0  0  0
 14 33  1  0  0  0  0
 15 14  2  0  0  0  0
 16 15  1  0  0  0  0
 17 16  2  0  0  0  0
 17 34  1  0  0  0  0
 18 17  1  0  0  0  0
 19 18  1  0  0  0  0
 20 18  2  0  0  0  0
 20 35  1  0  0  0  0
 21 20  1  0  0  0  0
 21 36  1  0  0  0  0
 22 21  2  0  0  0  0
 22 12  1  0  0  0  0
 22 16  1  0  0  0  0
M  END
>  <MOL Chiral Flag>
0

>  <energy>
89.127833830091959

$$$$
