>2.sdf
 OpenBabel10042211343D

 42 46  0  0  0  0  0  0  0  0999 V2000
    5.3289    0.2987    1.4381 C   0  0  0  0  0  0  0  0  0  0  0  0
    3.9087    0.4589    1.0025 C   0  0  0  0  0  0  0  0  0  0  0  0
    3.0807   -0.6513    0.7956 C   0  0  0  0  0  0  0  0  0  0  0  0
    1.7544   -0.5195    0.3990 C   0  0  0  0  0  0  0  0  0  0  0  0
    1.0160   -1.6290    0.2570 N   0  0  0  0  0  0  0  0  0  0  0  0
   -0.2720   -1.5260   -0.1608 C   0  0  0  0  0  0  0  0  0  0  0  0
   -0.8577   -0.3027   -0.4714 C   0  0  0  0  0  0  0  0  0  0  0  0
   -2.2342   -0.3220   -1.0320 C   0  0  0  0  0  0  0  0  0  0  0  0
   -2.9415    0.6696   -1.1413 O   0  0  0  0  0  0  0  0  0  0  0  0
   -2.7959   -1.6529   -1.4888 C   0  0  0  0  0  0  0  0  0  0  0  0
   -3.6875   -1.7024   -2.3230 O   0  0  0  0  0  0  0  0  0  0  0  0
   -2.2508   -2.8673   -0.8706 C   0  0  0  0  0  0  0  0  0  0  0  0
   -1.0260   -2.7883   -0.1995 C   0  0  0  0  0  0  0  0  0  0  0  0
   -0.5735   -3.9547    0.4483 C   0  0  0  0  0  0  0  0  0  0  0  0
   -1.3051   -5.1447    0.4065 C   0  0  0  0  0  0  0  0  0  0  0  0
   -2.4986   -5.2015   -0.3048 C   0  0  0  0  0  0  0  0  0  0  0  0
   -2.9722   -4.0653   -0.9518 C   0  0  0  0  0  0  0  0  0  0  0  0
   -0.1301    0.8806   -0.2361 C   0  0  0  0  0  0  0  0  0  0  0  0
   -0.7680    2.2123   -0.3245 C   0  0  0  0  0  0  0  0  0  0  0  0
   -1.5006    2.6912    0.7801 C   0  0  0  0  0  0  0  0  0  0  0  0
   -2.1325    3.9348    0.7449 C   0  0  0  0  0  0  0  0  0  0  0  0
   -2.0267    4.7199   -0.3977 C   0  0  0  0  0  0  0  0  0  0  0  0
   -2.8738    6.4084   -0.4437 Br  0  0  0  0  0  0  0  0  0  0  0  0
   -1.2913    4.2738   -1.4979 C   0  0  0  0  0  0  0  0  0  0  0  0
   -0.6647    3.0218   -1.4639 C   0  0  0  0  0  0  0  0  0  0  0  0
    1.2268    0.7704    0.1899 C   0  0  0  0  0  0  0  0  0  0  0  0
    2.0590    1.8872    0.4294 C   0  0  0  0  0  0  0  0  0  0  0  0
    3.3783    1.7318    0.8433 C   0  0  0  0  0  0  0  0  0  0  0  0
    5.9760    0.9758    0.8717 H   0  0  0  0  0  0  0  0  0  0  0  0
    5.4131    0.5318    2.5018 H   0  0  0  0  0  0  0  0  0  0  0  0
    5.6964   -0.7174    1.2727 H   0  0  0  0  0  0  0  0  0  0  0  0
    3.4779   -1.6503    0.9506 H   0  0  0  0  0  0  0  0  0  0  0  0
    0.3620   -3.9406    1.0122 H   0  0  0  0  0  0  0  0  0  0  0  0
   -0.9317   -6.0236    0.9244 H   0  0  0  0  0  0  0  0  0  0  0  0
   -3.0649   -6.1277   -0.3498 H   0  0  0  0  0  0  0  0  0  0  0  0
   -3.9116   -4.1046   -1.5008 H   0  0  0  0  0  0  0  0  0  0  0  0
   -1.6004    2.0752    1.6721 H   0  0  0  0  0  0  0  0  0  0  0  0
   -2.7109    4.2655    1.6043 H   0  0  0  0  0  0  0  0  0  0  0  0
   -1.2136    4.8884   -2.3923 H   0  0  0  0  0  0  0  0  0  0  0  0
   -0.1156    2.6810   -2.3367 H   0  0  0  0  0  0  0  0  0  0  0  0
    1.6886    2.9035    0.3006 H   0  0  0  0  0  0  0  0  0  0  0  0
    3.9844    2.6110    1.0426 H   0  0  0  0  0  0  0  0  0  0  0  0
  1 29  1  0  0  0  0
  1 30  1  0  0  0  0
  1 31  1  0  0  0  0
  2  1  1  0  0  0  0
  3  2  2  0  0  0  0
  3 32  1  0  0  0  0
  4  3  1  0  0  0  0
  5  4  2  0  0  0  0
  6  5  1  0  0  0  0
  7  6  2  0  0  0  0
  8  7  1  0  0  0  0
  9  8  2  0  0  0  0
 10  8  1  0  0  0  0
 11 10  2  0  0  0  0
 12 10  1  0  0  0  0
 13 12  2  0  0  0  0
 13  6  1  0  0  0  0
 14 13  1  0  0  0  0
 14 33  1  0  0  0  0
 15 14  2  0  0  0  0
 15 34  1  0  0  0  0
 16 15  1  0  0  0  0
 16 35  1  0  0  0  0
 17 16  2  0  0  0  0
 17 12  1  0  0  0  0
 17 36  1  0  0  0  0
 18  7  1  0  0  0  0
 19 18  1  0  0  0  0
 20 19  2  0  0  0  0
 20 37  1  0  0  0  0
 21 20  1  0  0  0  0
 21 38  1  0  0  0  0
 22 21  2  0  0  0  0
 23 22  1  0  0  0  0
 24 22  1  0  0  0  0
 24 39  1  0  0  0  0
 25 24  2  0  0  0  0
 25 19  1  0  0  0  0
 25 40  1  0  0  0  0
 26 18  2  0  0  0  0
 26  4  1  0  0  0  0
 27 26  1  0  0  0  0
 27 41  1  0  0  0  0
 28 27  2  0  0  0  0
 28  2  1  0  0  0  0
 28 42  1  0  0  0  0
M  END
>  <energy>
124.46576515590833

$$$$
