>20.sdf
 OpenBabel10052217593D

 54 59  0  0  0  0  0  0  0  0999 V2000
    2.3510   -2.6159   -2.1359 O   0  0  0  0  0  0  0  0  0  0  0  0
    2.6257   -1.9703   -1.1336 C   0  0  0  0  0  0  0  0  0  0  0  0
    3.1329   -2.6631    0.0737 C   0  0  0  0  0  0  0  0  0  0  0  0
    3.2602   -4.0655    0.0898 C   0  0  0  0  0  0  0  0  0  0  0  0
    3.7477   -4.7165    1.2237 C   0  0  0  0  0  0  0  0  0  0  0  0
    4.1232   -3.9784    2.3461 C   0  0  0  0  0  0  0  0  0  0  0  0
    3.9984   -2.5854    2.3459 C   0  0  0  0  0  0  0  0  0  0  0  0
    3.4926   -1.9149    1.2147 C   0  0  0  0  0  0  0  0  0  0  0  0
    3.3306   -0.4318    1.2139 C   0  0  0  0  0  0  0  0  0  0  0  0
    3.6457    0.2156    2.2024 O   0  0  0  0  0  0  0  0  0  0  0  0
    2.7929    0.2632    0.0087 C   0  0  0  0  0  0  0  0  0  0  0  0
    2.6380    1.6719   -0.0184 C   0  0  0  0  0  0  0  0  0  0  0  0
    2.1826    2.3182   -1.1942 C   0  0  0  0  0  0  0  0  0  0  0  0
    2.1242    3.8318   -1.3589 C   0  0  0  0  0  0  0  0  0  0  0  0
    1.1479    5.4034   -0.7644 Se  0  0  0  0  0  0  0  0  0  0  0  0
    0.6275    4.4595    1.3412 Se  0  0  0  0  0  0  0  0  0  0  0  0
   -1.2910    4.7346    1.0967 C   0  0  0  0  0  0  0  0  0  0  0  0
   -1.7720    3.3108    1.1093 C   0  0  0  0  0  0  0  0  0  0  0  0
   -1.4767    2.4839    2.2049 C   0  0  0  0  0  0  0  0  0  0  0  0
   -1.7701    1.1315    2.1665 C   0  0  0  0  0  0  0  0  0  0  0  0
   -2.4036    0.5778    1.0480 C   0  0  0  0  0  0  0  0  0  0  0  0
   -2.6890   -0.8729    1.0045 C   0  0  0  0  0  0  0  0  0  0  0  0
   -2.3272   -1.5955    1.9234 O   0  0  0  0  0  0  0  0  0  0  0  0
   -3.4203   -1.4460   -0.1470 C   0  0  0  0  0  0  0  0  0  0  0  0
   -3.7563   -2.8095   -0.1657 C   0  0  0  0  0  0  0  0  0  0  0  0
   -4.4658   -3.3430   -1.2416 C   0  0  0  0  0  0  0  0  0  0  0  0
   -4.8367   -2.5265   -2.3111 C   0  0  0  0  0  0  0  0  0  0  0  0
   -4.5014   -1.1718   -2.3091 C   0  0  0  0  0  0  0  0  0  0  0  0
   -3.7966   -0.6188   -1.2274 C   0  0  0  0  0  0  0  0  0  0  0  0
   -3.4572    0.8255   -1.2112 C   0  0  0  0  0  0  0  0  0  0  0  0
   -3.7597    1.5366   -2.1597 O   0  0  0  0  0  0  0  0  0  0  0  0
   -2.7672    1.4087   -0.0354 C   0  0  0  0  0  0  0  0  0  0  0  0
   -2.4467    2.7790    0.0024 C   0  0  0  0  0  0  0  0  0  0  0  0
    1.8719    1.5375   -2.3168 C   0  0  0  0  0  0  0  0  0  0  0  0
    2.0004    0.1552   -2.2873 C   0  0  0  0  0  0  0  0  0  0  0  0
    2.4647   -0.4940   -1.1362 C   0  0  0  0  0  0  0  0  0  0  0  0
    2.9788   -4.6558   -0.7739 H   0  0  0  0  0  0  0  0  0  0  0  0
    3.8368   -5.7958    1.2305 H   0  0  0  0  0  0  0  0  0  0  0  0
    4.5078   -4.4878    3.2206 H   0  0  0  0  0  0  0  0  0  0  0  0
    4.2927   -2.0329    3.2288 H   0  0  0  0  0  0  0  0  0  0  0  0
    2.9053    2.2572    0.8535 H   0  0  0  0  0  0  0  0  0  0  0  0
    2.7814    4.1230   -0.5132 H   0  0  0  0  0  0  0  0  0  0  0  0
    1.0720    3.7880   -1.7216 H   0  0  0  0  0  0  0  0  0  0  0  0
   -1.8705    5.1348    1.9686 H   0  0  0  0  0  0  0  0  0  0  0  0
   -0.8722    5.7545    1.0869 H   0  0  0  0  0  0  0  0  0  0  0  0
   -0.9708    2.8898    3.0699 H   0  0  0  0  0  0  0  0  0  0  0  0
   -1.4831    0.5148    3.0079 H   0  0  0  0  0  0  0  0  0  0  0  0
   -3.4781   -3.4562    0.6575 H   0  0  0  0  0  0  0  0  0  0  0  0
   -4.7312   -4.3912   -1.2438 H   0  0  0  0  0  0  0  0  0  0  0  0
   -5.3885   -2.9423   -3.1426 H   0  0  0  0  0  0  0  0  0  0  0  0
   -4.7993   -0.5525   -3.1457 H   0  0  0  0  0  0  0  0  0  0  0  0
   -2.6987    3.4205   -0.8361 H   0  0  0  0  0  0  0  0  0  0  0  0
    1.5405    2.0145   -3.2308 H   0  0  0  0  0  0  0  0  0  0  0  0
    1.7569   -0.4079   -3.1784 H   0  0  0  0  0  0  0  0  0  0  0  0
  2  1  2  0  0  0  0
  3  2  1  0  0  0  0
  4  3  2  0  0  0  0
  4 37  1  0  0  0  0
  5  4  1  0  0  0  0
  5 38  1  0  0  0  0
  6  5  2  0  0  0  0
  6 39  1  0  0  0  0
  7  6  1  0  0  0  0
  7 40  1  0  0  0  0
  8  7  2  0  0  0  0
  8  3  1  0  0  0  0
  9  8  1  0  0  0  0
 10  9  2  0  0  0  0
 11  9  1  0  0  0  0
 12 11  2  0  0  0  0
 12 41  1  0  0  0  0
 13 12  1  0  0  0  0
 14 13  1  0  0  0  0
 14 42  1  0  0  0  0
 14 43  1  0  0  0  0
 15 14  1  0  0  0  0
 16 15  1  0  0  0  0
 17 16  1  0  0  0  0
 17 44  1  0  0  0  0
 17 45  1  0  0  0  0
 18 17  1  0  0  0  0
 19 18  2  0  0  0  0
 19 46  1  0  0  0  0
 20 19  1  0  0  0  0
 20 47  1  0  0  0  0
 21 20  2  0  0  0  0
 22 21  1  0  0  0  0
 23 22  2  0  0  0  0
 24 22  1  0  0  0  0
 25 24  2  0  0  0  0
 25 48  1  0  0  0  0
 26 25  1  0  0  0  0
 26 49  1  0  0  0  0
 27 26  2  0  0  0  0
 27 50  1  0  0  0  0
 28 27  1  0  0  0  0
 28 51  1  0  0  0  0
 29 28  2  0  0  0  0
 29 24  1  0  0  0  0
 30 29  1  0  0  0  0
 31 30  2  0  0  0  0
 32 30  1  0  0  0  0
 32 21  1  0  0  0  0
 33 32  2  0  0  0  0
 33 18  1  0  0  0  0
 33 52  1  0  0  0  0
 34 13  2  0  0  0  0
 34 53  1  0  0  0  0
 35 34  1  0  0  0  0
 35 54  1  0  0  0  0
 36 35  2  0  0  0  0
 36  2  1  0  0  0  0
 36 11  1  0  0  0  0
M  END
>  <MOL Chiral Flag>
0

>  <energy>
123.06195558455725

$$$$
