>200.sdf
 OpenBabel10052220303D

 26 27  0  0  0  0  0  0  0  0999 V2000
   -5.4516    2.7624   -1.8372 O   0  5  0  0  0  0  0  0  0  0  0  0
   -4.3671    2.3691   -2.2897 N   0  3  0  0  0  0  0  0  0  0  0  0
   -3.9086    2.6579   -3.4021 O   0  0  0  0  0  0  0  0  0  0  0  0
   -3.6020    1.4981   -1.4372 C   0  0  0  0  0  0  0  0  0  0  0  0
   -4.0291    0.9248   -0.2590 C   0  0  0  0  0  0  0  0  0  0  0  0
   -2.9953    0.1477    0.3434 C   0  0  0  0  0  0  0  0  0  0  0  0
   -1.8177    0.1889   -0.3808 C   0  0  0  0  0  0  0  0  0  0  0  0
   -1.9949    1.1029   -1.8178 S   0  0  0  0  0  0  0  0  0  0  0  0
   -0.5485   -0.3803    0.0132 C   0  0  0  0  0  0  0  0  0  0  0  0
    0.5552   -0.1167   -0.6135 N   0  0  0  0  0  0  0  0  0  0  0  0
    1.7398   -0.4669   -0.0062 N   0  0  0  0  0  0  0  0  0  0  0  0
    1.9642   -0.4247    1.3744 C   0  0  0  0  0  0  0  0  0  0  0  0
    1.0871   -0.3639    2.2315 O   0  0  0  0  0  0  0  0  0  0  0  0
    3.4232   -0.3723    1.7451 C   0  0  0  0  0  0  0  0  0  0  0  0
    4.3163   -0.5051    0.7355 N   0  0  0  0  0  0  0  0  0  0  0  0
    5.6054   -0.3265    1.0832 C   0  0  0  0  0  0  0  0  0  0  0  0
    6.0164   -0.0100    2.3595 C   0  0  0  0  0  0  0  0  0  0  0  0
    5.0217    0.1009    3.3031 C   0  0  0  0  0  0  0  0  0  0  0  0
    3.7203   -0.0802    3.0280 N   0  0  0  0  0  0  0  0  0  0  0  0
   -5.0178    1.0661    0.1632 H   0  0  0  0  0  0  0  0  0  0  0  0
   -3.0939   -0.3695    1.2919 H   0  0  0  0  0  0  0  0  0  0  0  0
   -0.5828   -1.0284    0.9050 H   0  0  0  0  0  0  0  0  0  0  0  0
    2.5641   -0.4325   -0.6066 H   0  0  0  0  0  0  0  0  0  0  0  0
    6.3264   -0.4377    0.2775 H   0  0  0  0  0  0  0  0  0  0  0  0
    7.0575    0.1470    2.6071 H   0  0  0  0  0  0  0  0  0  0  0  0
    5.2458    0.3562    4.3352 H   0  0  0  0  0  0  0  0  0  0  0  0
  2  1  1  0  0  0  0
  3  2  2  0  0  0  0
  4  2  1  0  0  0  0
  5  4  2  0  0  0  0
  5 20  1  0  0  0  0
  6  5  1  0  0  0  0
  6 21  1  0  0  0  0
  7  6  2  0  0  0  0
  8  7  1  0  0  0  0
  8  4  1  0  0  0  0
  9  7  1  0  0  0  0
  9 22  1  0  0  0  0
 10  9  2  0  0  0  0
 11 10  1  0  0  0  0
 11 23  1  0  0  0  0
 12 11  1  0  0  0  0
 13 12  2  0  0  0  0
 14 12  1  0  0  0  0
 15 14  2  0  0  0  0
 16 15  1  0  0  0  0
 16 24  1  0  0  0  0
 17 16  2  0  0  0  0
 17 25  1  0  0  0  0
 18 17  1  0  0  0  0
 18 26  1  0  0  0  0
 19 18  2  0  0  0  0
 19 14  1  0  0  0  0
M  CHG  2   1  -1   2   1
M  END
>  <MOL Chiral Flag>
0

>  <energy>
150.4030812896022

$$$$
