>209.sdf
 OpenBabel10052220343D

 56 58  0  0  0  0  0  0  0  0999 V2000
   -1.6420    2.7368   -4.0989 C   0  0  0  0  0  0  0  0  0  0  0  0
   -2.4130    3.2056   -3.0503 O   0  0  0  0  0  0  0  0  0  0  0  0
   -2.3229    2.7583   -1.7669 C   0  0  0  0  0  0  0  0  0  0  0  0
   -1.2386    1.9727   -1.3386 C   0  0  0  0  0  0  0  0  0  0  0  0
   -1.1712    1.4665   -0.0302 C   0  0  0  0  0  0  0  0  0  0  0  0
   -2.2527    1.7055    0.8368 C   0  0  0  0  0  0  0  0  0  0  0  0
   -3.3418    2.5137    0.4320 C   0  0  0  0  0  0  0  0  0  0  0  0
   -4.4089    2.7165    1.2481 O   0  0  0  0  0  0  0  0  0  0  0  0
   -4.6684    2.0317    2.4167 C   0  0  0  0  0  0  0  0  0  0  0  0
   -3.3453    3.0878   -0.8644 C   0  0  0  0  0  0  0  0  0  0  0  0
   -4.3164    3.9476   -1.2899 O   0  0  0  0  0  0  0  0  0  0  0  0
   -4.9368    4.9100   -0.5066 C   0  0  0  0  0  0  0  0  0  0  0  0
    0.0613    0.7198    0.3906 C   0  0  0  0  0  0  0  0  0  0  0  0
    0.1596   -0.0193    1.5804 C   0  0  0  0  0  0  0  0  0  0  0  0
    1.3689   -0.6468    1.9143 C   0  0  0  0  0  0  0  0  0  0  0  0
    2.5055   -0.5311    1.0786 C   0  0  0  0  0  0  0  0  0  0  0  0
    3.8218   -1.2168    1.4153 C   0  0  0  0  0  0  0  0  0  0  0  0
    4.7748   -1.0516    0.6711 O   0  0  0  0  0  0  0  0  0  0  0  0
    3.9802   -2.0428    2.4976 N   0  0  0  0  0  0  0  0  0  0  0  0
    5.1767   -2.7332    2.6701 N   0  0  0  0  0  0  0  0  0  0  0  0
    5.4321   -3.6473    3.7459 C   0  0  0  0  0  0  0  0  0  0  0  0
    4.4911   -3.7854    4.8327 S   0  0  0  0  0  0  0  0  0  0  0  0
    6.5632   -4.5315    3.6101 N   0  0  0  0  0  0  0  0  0  0  0  0
    7.1805   -5.3673    4.6043 C   0  0  0  0  0  0  0  0  0  0  0  0
    7.0527   -5.1456    5.9942 C   0  0  0  0  0  0  0  0  0  0  0  0
    7.7177   -5.9748    6.9060 C   0  0  0  0  0  0  0  0  0  0  0  0
    8.5124   -7.0287    6.4521 C   0  0  0  0  0  0  0  0  0  0  0  0
    8.6535   -7.2546    5.0840 C   0  0  0  0  0  0  0  0  0  0  0  0
    8.0005   -6.4270    4.1670 C   0  0  0  0  0  0  0  0  0  0  0  0
    2.3567    0.2456   -0.1121 C   0  0  0  0  0  0  0  0  0  0  0  0
    3.4728    0.4908   -1.0893 C   0  0  0  0  0  0  0  0  0  0  0  0
    1.1595    0.8149   -0.4001 N   0  0  0  0  0  0  0  0  0  0  0  0
   -0.5737    3.0010   -3.9559 H   0  0  0  0  0  0  0  0  0  0  0  0
   -1.9968    3.1848   -5.0489 H   0  0  0  0  0  0  0  0  0  0  0  0
   -1.7510    1.6316   -4.1813 H   0  0  0  0  0  0  0  0  0  0  0  0
   -0.4355    1.7579   -2.0284 H   0  0  0  0  0  0  0  0  0  0  0  0
   -2.2425    1.2990    1.8333 H   0  0  0  0  0  0  0  0  0  0  0  0
   -5.6665    2.3339    2.7950 H   0  0  0  0  0  0  0  0  0  0  0  0
   -3.9047    2.2654    3.1856 H   0  0  0  0  0  0  0  0  0  0  0  0
   -4.6966    0.9380    2.2146 H   0  0  0  0  0  0  0  0  0  0  0  0
   -5.5583    4.4793    0.2986 H   0  0  0  0  0  0  0  0  0  0  0  0
   -5.6127    5.5174   -1.1425 H   0  0  0  0  0  0  0  0  0  0  0  0
   -4.1749    5.5974   -0.0736 H   0  0  0  0  0  0  0  0  0  0  0  0
   -0.6801   -0.1275    2.2498 H   0  0  0  0  0  0  0  0  0  0  0  0
    1.3948   -1.2095    2.8322 H   0  0  0  0  0  0  0  0  0  0  0  0
    3.2075   -2.1982    3.1517 H   0  0  0  0  0  0  0  0  0  0  0  0
    5.9158   -2.6439    1.9580 H   0  0  0  0  0  0  0  0  0  0  0  0
    6.9640   -4.5922    2.6616 H   0  0  0  0  0  0  0  0  0  0  0  0
    6.4771   -4.3267    6.3895 H   0  0  0  0  0  0  0  0  0  0  0  0
    7.6240   -5.7929    7.9687 H   0  0  0  0  0  0  0  0  0  0  0  0
    9.0265   -7.6654    7.1610 H   0  0  0  0  0  0  0  0  0  0  0  0
    9.2744   -8.0688    4.7315 H   0  0  0  0  0  0  0  0  0  0  0  0
    8.1273   -6.6151    3.1078 H   0  0  0  0  0  0  0  0  0  0  0  0
    3.8380   -0.4652   -1.5175 H   0  0  0  0  0  0  0  0  0  0  0  0
    3.1204    1.1227   -1.9325 H   0  0  0  0  0  0  0  0  0  0  0  0
    4.2991    1.0397   -0.5889 H   0  0  0  0  0  0  0  0  0  0  0  0
  1 33  1  0  0  0  0
  1 34  1  0  0  0  0
  1 35  1  0  0  0  0
  2  1  1  0  0  0  0
  3  2  1  0  0  0  0
  4  3  2  0  0  0  0
  4 36  1  0  0  0  0
  5  4  1  0  0  0  0
  6  5  2  0  0  0  0
  6 37  1  0  0  0  0
  7  6  1  0  0  0  0
  8  7  1  0  0  0  0
  9  8  1  0  0  0  0
  9 38  1  0  0  0  0
  9 39  1  0  0  0  0
  9 40  1  0  0  0  0
 10  7  2  0  0  0  0
 10  3  1  0  0  0  0
 11 10  1  0  0  0  0
 12 11  1  0  0  0  0
 12 41  1  0  0  0  0
 12 42  1  0  0  0  0
 12 43  1  0  0  0  0
 13  5  1  0  0  0  0
 14 13  2  0  0  0  0
 14 44  1  0  0  0  0
 15 14  1  0  0  0  0
 15 45  1  0  0  0  0
 16 15  2  0  0  0  0
 17 16  1  0  0  0  0
 18 17  2  0  0  0  0
 19 17  1  0  0  0  0
 19 46  1  0  0  0  0
 20 19  1  0  0  0  0
 20 47  1  0  0  0  0
 21 20  1  0  0  0  0
 22 21  2  0  0  0  0
 23 21  1  0  0  0  0
 23 48  1  0  0  0  0
 24 23  1  0  0  0  0
 25 24  2  0  0  0  0
 25 49  1  0  0  0  0
 26 25  1  0  0  0  0
 26 50  1  0  0  0  0
 27 26  2  0  0  0  0
 27 51  1  0  0  0  0
 28 27  1  0  0  0  0
 28 52  1  0  0  0  0
 29 28  2  0  0  0  0
 29 24  1  0  0  0  0
 29 53  1  0  0  0  0
 30 16  1  0  0  0  0
 31 30  1  0  0  0  0
 31 54  1  0  0  0  0
 31 55  1  0  0  0  0
 31 56  1  0  0  0  0
 32 30  2  0  0  0  0
 32 13  1  0  0  0  0
M  END
>  <MOL Chiral Flag>
0

>  <energy>
114.16461531391525

$$$$
