>211.sdf
 OpenBabel10052220353D

 47 50  0  0  0  0  0  0  0  0999 V2000
   -8.1505   -0.9547   -0.3832 O   0  0  0  0  0  0  0  0  0  0  0  0
   -7.0596   -0.9066    0.1009 N   0  0  0  0  0  0  0  0  0  0  0  0
   -6.7963   -1.6004    1.0347 O   0  0  0  0  0  0  0  0  0  0  0  0
   -6.0792   -0.0319   -0.4308 C   0  0  0  0  0  0  0  0  0  0  0  0
   -6.2455    0.8241   -1.5031 C   0  0  0  0  0  0  0  0  0  0  0  0
   -5.0347    1.4666   -1.6584 C   0  0  0  0  0  0  0  0  0  0  0  0
   -4.2071    0.9608   -0.6720 C   0  0  0  0  0  0  0  0  0  0  0  0
   -4.8586    0.0702    0.0417 O   0  0  0  0  0  0  0  0  0  0  0  0
   -2.8067    1.3217   -0.4404 C   0  0  0  0  0  0  0  0  0  0  0  0
   -2.0974    2.2330   -1.1634 N   0  0  0  0  0  0  0  0  0  0  0  0
   -0.8088    2.3477   -0.7750 N   0  0  0  0  0  0  0  0  0  0  0  0
   -0.4779    1.5278    0.2631 C   0  0  0  0  0  0  0  0  0  0  0  0
   -1.8169    0.6579    0.6952 S   0  0  0  0  0  0  0  0  0  0  0  0
    0.8373    1.4028    0.8148 N   0  0  0  0  0  0  0  0  0  0  0  0
    1.9335    1.9644    0.0303 C   0  0  0  0  0  0  0  0  0  0  0  0
    3.2368    2.0702    0.8405 C   0  0  0  0  0  0  0  0  0  0  0  0
    3.5825    0.6968    1.4644 C   0  0  0  0  0  0  0  0  0  0  0  0
    2.4077    0.3113    2.3899 C   0  0  0  0  0  0  0  0  0  0  0  0
    1.1068    0.1994    1.5969 C   0  0  0  0  0  0  0  0  0  0  0  0
    4.9057    0.6255    2.1645 N   0  3  0  0  0  0  0  0  0  0  0  0
    4.9883    1.3694    3.4487 C   0  0  0  0  0  0  0  0  0  0  0  0
    6.3297    1.0872    4.1512 C   0  0  0  0  0  0  0  0  0  0  0  0
    7.4927    1.4874    3.2449 C   0  0  0  0  0  0  0  0  0  0  0  0
    7.3855    0.7393    1.9149 C   0  0  0  0  0  0  0  0  0  0  0  0
    6.0226    1.0246    1.2675 C   0  0  0  0  0  0  0  0  0  0  0  0
   -7.1367    0.9621   -2.1010 H   0  0  0  0  0  0  0  0  0  0  0  0
   -4.7857    2.2087   -2.4055 H   0  0  0  0  0  0  0  0  0  0  0  0
    1.6747    2.9782   -0.3465 H   0  0  0  0  0  0  0  0  0  0  0  0
    2.1080    1.3035   -0.8484 H   0  0  0  0  0  0  0  0  0  0  0  0
    3.1233    2.8330    1.6405 H   0  0  0  0  0  0  0  0  0  0  0  0
    4.0188    2.4135    0.1339 H   0  0  0  0  0  0  0  0  0  0  0  0
    3.6195   -0.0496    0.6354 H   0  0  0  0  0  0  0  0  0  0  0  0
    2.2610    1.0934    3.1667 H   0  0  0  0  0  0  0  0  0  0  0  0
    2.6036   -0.6599    2.8926 H   0  0  0  0  0  0  0  0  0  0  0  0
    0.2896    0.0079    2.3261 H   0  0  0  0  0  0  0  0  0  0  0  0
    1.1744   -0.6678    0.9045 H   0  0  0  0  0  0  0  0  0  0  0  0
    5.0402   -0.3901    2.3918 H   0  0  0  0  0  0  0  0  0  0  0  0
    4.2040    1.0345    4.1576 H   0  0  0  0  0  0  0  0  0  0  0  0
    4.8717    2.4619    3.2776 H   0  0  0  0  0  0  0  0  0  0  0  0
    6.4023    0.0000    4.3809 H   0  0  0  0  0  0  0  0  0  0  0  0
    6.3855    1.6459    5.1096 H   0  0  0  0  0  0  0  0  0  0  0  0
    8.4599    1.2482    3.7371 H   0  0  0  0  0  0  0  0  0  0  0  0
    7.4544    2.5838    3.0621 H   0  0  0  0  0  0  0  0  0  0  0  0
    7.4885   -0.3542    2.0885 H   0  0  0  0  0  0  0  0  0  0  0  0
    8.2034    1.0638    1.2359 H   0  0  0  0  0  0  0  0  0  0  0  0
    5.9680    0.4680    0.3056 H   0  0  0  0  0  0  0  0  0  0  0  0
    5.9796    2.1141    1.0475 H   0  0  0  0  0  0  0  0  0  0  0  0
  2  1  2  0  0  0  0
  3  2  2  0  0  0  0
  4  2  1  0  0  0  0
  5  4  2  0  0  0  0
  5 26  1  0  0  0  0
  6  5  1  0  0  0  0
  6 27  1  0  0  0  0
  7  6  2  0  0  0  0
  8  7  1  0  0  0  0
  8  4  1  0  0  0  0
  9  7  1  0  0  0  0
 10  9  2  0  0  0  0
 11 10  1  0  0  0  0
 12 11  2  0  0  0  0
 13 12  1  0  0  0  0
 13  9  1  0  0  0  0
 14 12  1  0  0  0  0
 15 14  1  0  0  0  0
 15 28  1  0  0  0  0
 15 29  1  0  0  0  0
 16 15  1  0  0  0  0
 16 30  1  0  0  0  0
 16 31  1  0  0  0  0
 17 16  1  0  0  0  0
 17 32  1  0  0  0  0
 18 17  1  0  0  0  0
 18 33  1  0  0  0  0
 18 34  1  0  0  0  0
 19 18  1  0  0  0  0
 19 14  1  0  0  0  0
 19 35  1  0  0  0  0
 19 36  1  0  0  0  0
 20 17  1  0  0  0  0
 20 37  1  0  0  0  0
 21 20  1  0  0  0  0
 21 38  1  0  0  0  0
 21 39  1  0  0  0  0
 22 21  1  0  0  0  0
 22 40  1  0  0  0  0
 22 41  1  0  0  0  0
 23 22  1  0  0  0  0
 23 42  1  0  0  0  0
 23 43  1  0  0  0  0
 24 23  1  0  0  0  0
 24 44  1  0  0  0  0
 24 45  1  0  0  0  0
 25 24  1  0  0  0  0
 25 20  1  0  0  0  0
 25 46  1  0  0  0  0
 25 47  1  0  0  0  0
M  CHG  1  20   1
M  END
>  <MOL Chiral Flag>
0

>  <energy>
55.792441175409273

$$$$
