>220.sdf
 OpenBabel10052220403D

 30 31  0  0  0  0  0  0  0  0999 V2000
   -4.1747   -2.7962    0.0643 C   0  0  0  0  0  0  0  0  0  0  0  0
   -3.0012   -2.0734    0.0160 O   0  0  0  0  0  0  0  0  0  0  0  0
   -2.9249   -0.7519    0.3192 C   0  0  0  0  0  0  0  0  0  0  0  0
   -3.9269   -0.1346    0.6473 O   0  0  0  0  0  0  0  0  0  0  0  0
   -1.6133   -0.0774    0.2368 C   0  0  0  0  0  0  0  0  0  0  0  0
   -1.2957    1.2661    0.4779 C   0  0  0  0  0  0  0  0  0  0  0  0
   -2.1934    2.3985    0.8991 C   0  0  0  0  0  0  0  0  0  0  0  0
   -2.2307    3.7820   -0.4583 Br  0  0  0  0  0  0  0  0  0  0  0  0
    0.0644    1.3569    0.2560 C   0  0  0  0  0  0  0  0  0  0  0  0
    0.4968    0.1096   -0.0980 C   0  0  0  0  0  0  0  0  0  0  0  0
   -0.5158   -0.7280   -0.1031 O   0  0  0  0  0  0  0  0  0  0  0  0
    1.8448   -0.1748   -0.3820 C   0  0  0  0  0  0  0  0  0  0  0  0
    2.2268   -1.5887   -0.7448 C   0  0  0  0  0  0  0  0  0  0  0  0
    3.6352   -2.1284   -0.7407 C   0  0  0  0  0  0  0  0  0  0  0  0
    1.3386   -2.3792   -1.0289 O   0  0  0  0  0  0  0  0  0  0  0  0
    2.7610    0.9251   -0.3100 C   0  0  0  0  0  0  0  0  0  0  0  0
    4.0625    0.7491   -0.6154 O   0  0  0  0  0  0  0  0  0  0  0  0
    2.2898    2.2233    0.0592 C   0  0  0  0  0  0  0  0  0  0  0  0
    3.4701    3.7320    0.1710 Br  0  0  0  0  0  0  0  0  0  0  0  0
    0.9336    2.4336    0.3488 C   0  0  0  0  0  0  0  0  0  0  0  0
   -3.9692   -3.8431   -0.2398 H   0  0  0  0  0  0  0  0  0  0  0  0
   -4.9223   -2.3624   -0.6341 H   0  0  0  0  0  0  0  0  0  0  0  0
   -4.5815   -2.7973    1.0981 H   0  0  0  0  0  0  0  0  0  0  0  0
   -3.2358    2.0762    1.0637 H   0  0  0  0  0  0  0  0  0  0  0  0
   -1.8194    2.8263    1.8528 H   0  0  0  0  0  0  0  0  0  0  0  0
    3.6680   -3.0087   -0.0642 H   0  0  0  0  0  0  0  0  0  0  0  0
    4.4106   -1.4473   -0.3643 H   0  0  0  0  0  0  0  0  0  0  0  0
    3.9103   -2.4612   -1.7630 H   0  0  0  0  0  0  0  0  0  0  0  0
    4.7167    1.4592   -0.5965 H   0  0  0  0  0  0  0  0  0  0  0  0
    0.5758    3.4145    0.6328 H   0  0  0  0  0  0  0  0  0  0  0  0
  1 21  1  0  0  0  0
  1 22  1  0  0  0  0
  1 23  1  0  0  0  0
  2  1  1  0  0  0  0
  3  2  1  0  0  0  0
  4  3  2  0  0  0  0
  5  3  1  0  0  0  0
  6  5  2  0  0  0  0
  7  6  1  0  0  0  0
  7 24  1  0  0  0  0
  7 25  1  0  0  0  0
  8  7  1  0  0  0  0
  9  6  1  0  0  0  0
 10  9  2  0  0  0  0
 11 10  1  0  0  0  0
 11  5  1  0  0  0  0
 12 10  1  0  0  0  0
 13 12  1  0  0  0  0
 14 13  1  0  0  0  0
 14 26  1  0  0  0  0
 14 27  1  0  0  0  0
 14 28  1  0  0  0  0
 15 13  2  0  0  0  0
 16 12  2  0  0  0  0
 17 16  1  0  0  0  0
 17 29  1  0  0  0  0
 18 16  1  0  0  0  0
 19 18  1  0  0  0  0
 20 18  2  0  0  0  0
 20  9  1  0  0  0  0
 20 30  1  0  0  0  0
M  END
>  <MOL Chiral Flag>
0

>  <energy>
49.262953040362419

$$$$
