>223.sdf
 OpenBabel10052220423D

 72 75  0  0  0  0  0  0  0  0999 V2000
    6.7938   -1.8861   -3.9867 N   0  0  0  0  0  0  0  0  0  0  0  0
    5.8311   -2.4574   -3.3408 C   0  0  0  0  0  0  0  0  0  0  0  0
    5.9620   -3.7913   -2.8322 N   0  0  0  0  0  0  0  0  0  0  0  0
    7.0554   -4.2241   -1.9572 C   0  0  0  0  0  0  0  0  0  0  0  0
    7.2125   -3.2451   -0.7736 C   0  0  0  0  0  0  0  0  0  0  0  0
    8.2504   -3.7677    0.2279 C   0  0  0  0  0  0  0  0  0  0  0  0
    9.5986   -3.9952   -0.4659 C   0  0  0  0  0  0  0  0  0  0  0  0
    9.4392   -4.9911   -1.6269 C   0  0  0  0  0  0  0  0  0  0  0  0
    8.4187   -4.4632   -2.6487 C   0  0  0  0  0  0  0  0  0  0  0  0
    4.5795   -1.7853   -3.1680 N   0  0  0  0  0  0  0  0  0  0  0  0
    4.4545   -0.3868   -2.8758 C   0  0  0  0  0  0  0  0  0  0  0  0
    5.5657    0.4061   -2.5040 C   0  0  0  0  0  0  0  0  0  0  0  0
    5.3977    1.7477   -2.1678 C   0  0  0  0  0  0  0  0  0  0  0  0
    4.1284    2.3223   -2.1825 C   0  0  0  0  0  0  0  0  0  0  0  0
    3.9242    4.1554   -1.6601 Se  0  0  0  0  0  0  0  0  0  0  0  0
    3.9796    3.4999    0.6356 Se  0  0  0  0  0  0  0  0  0  0  0  0
    2.0676    3.6029    0.6991 C   0  0  0  0  0  0  0  0  0  0  0  0
    1.4558    4.7938    1.0870 C   0  0  0  0  0  0  0  0  0  0  0  0
    0.0645    4.8960    1.0952 C   0  0  0  0  0  0  0  0  0  0  0  0
   -0.7413    3.8053    0.7202 C   0  0  0  0  0  0  0  0  0  0  0  0
   -2.1624    3.9921    0.6893 N   0  0  0  0  0  0  0  0  0  0  0  0
   -3.1593    2.9718    0.5269 C   0  0  0  0  0  0  0  0  0  0  0  0
   -4.3167    3.3152    0.0603 N   0  0  0  0  0  0  0  0  0  0  0  0
   -2.9083    1.6198    0.9459 N   0  0  0  0  0  0  0  0  0  0  0  0
   -3.7799    0.4988    0.6111 C   0  0  0  0  0  0  0  0  0  0  0  0
   -3.3289   -0.7793    1.3513 C   0  0  0  0  0  0  0  0  0  0  0  0
   -4.2453   -1.9591    0.9925 C   0  0  0  0  0  0  0  0  0  0  0  0
   -4.2248   -2.2086   -0.5208 C   0  0  0  0  0  0  0  0  0  0  0  0
   -4.6622   -0.9468   -1.2748 C   0  0  0  0  0  0  0  0  0  0  0  0
   -3.7542    0.2367   -0.9139 C   0  0  0  0  0  0  0  0  0  0  0  0
   -0.1092    2.6044    0.3224 C   0  0  0  0  0  0  0  0  0  0  0  0
    1.2863    2.5076    0.3234 C   0  0  0  0  0  0  0  0  0  0  0  0
    3.0179    1.5525   -2.5423 C   0  0  0  0  0  0  0  0  0  0  0  0
    3.1784    0.2037   -2.8802 C   0  0  0  0  0  0  0  0  0  0  0  0
    6.6712   -0.9535   -4.4042 H   0  0  0  0  0  0  0  0  0  0  0  0
    5.0924   -4.3398   -2.7482 H   0  0  0  0  0  0  0  0  0  0  0  0
    6.7466   -5.2069   -1.5306 H   0  0  0  0  0  0  0  0  0  0  0  0
    7.5309   -2.2474   -1.1479 H   0  0  0  0  0  0  0  0  0  0  0  0
    6.2376   -3.1262   -0.2516 H   0  0  0  0  0  0  0  0  0  0  0  0
    7.8940   -4.7283    0.6614 H   0  0  0  0  0  0  0  0  0  0  0  0
    8.3690   -3.0374    1.0571 H   0  0  0  0  0  0  0  0  0  0  0  0
   10.3320   -4.3896    0.2693 H   0  0  0  0  0  0  0  0  0  0  0  0
    9.9829   -3.0253   -0.8534 H   0  0  0  0  0  0  0  0  0  0  0  0
    9.1003   -5.9731   -1.2304 H   0  0  0  0  0  0  0  0  0  0  0  0
   10.4221   -5.1382   -2.1243 H   0  0  0  0  0  0  0  0  0  0  0  0
    8.8599   -3.5338   -3.0411 H   0  0  0  0  0  0  0  0  0  0  0  0
    8.3048   -5.1943   -3.4769 H   0  0  0  0  0  0  0  0  0  0  0  0
    3.7338   -2.3665   -3.0645 H   0  0  0  0  0  0  0  0  0  0  0  0
    6.5609   -0.0030   -2.4342 H   0  0  0  0  0  0  0  0  0  0  0  0
    6.2568    2.3376   -1.8745 H   0  0  0  0  0  0  0  0  0  0  0  0
    2.0593    5.6470    1.3694 H   0  0  0  0  0  0  0  0  0  0  0  0
   -0.3912    5.8339    1.3865 H   0  0  0  0  0  0  0  0  0  0  0  0
   -2.4974    4.9676    0.7086 H   0  0  0  0  0  0  0  0  0  0  0  0
   -4.4970    4.2915   -0.2148 H   0  0  0  0  0  0  0  0  0  0  0  0
   -2.0987    1.4408    1.5574 H   0  0  0  0  0  0  0  0  0  0  0  0
   -4.8151    0.7210    0.9513 H   0  0  0  0  0  0  0  0  0  0  0  0
   -2.2809   -1.0294    1.0728 H   0  0  0  0  0  0  0  0  0  0  0  0
   -3.3667   -0.6098    2.4493 H   0  0  0  0  0  0  0  0  0  0  0  0
   -3.9067   -2.8731    1.5255 H   0  0  0  0  0  0  0  0  0  0  0  0
   -5.2854   -1.7333    1.3171 H   0  0  0  0  0  0  0  0  0  0  0  0
   -3.1953   -2.4893   -0.8350 H   0  0  0  0  0  0  0  0  0  0  0  0
   -4.9065   -3.0493   -0.7723 H   0  0  0  0  0  0  0  0  0  0  0  0
   -5.7132   -0.6987   -1.0078 H   0  0  0  0  0  0  0  0  0  0  0  0
   -4.6166   -1.1330   -2.3695 H   0  0  0  0  0  0  0  0  0  0  0  0
   -4.0941    1.1278   -1.4796 H   0  0  0  0  0  0  0  0  0  0  0  0
   -2.7117    0.0126   -1.2330 H   0  0  0  0  0  0  0  0  0  0  0  0
   -0.6679    1.7514   -0.0240 H   0  0  0  0  0  0  0  0  0  0  0  0
    1.7600    1.5866    0.0099 H   0  0  0  0  0  0  0  0  0  0  0  0
    2.0295    1.9934   -2.5452 H   0  0  0  0  0  0  0  0  0  0  0  0
    2.3076   -0.3854   -3.1396 H   0  0  0  0  0  0  0  0  0  0  0  0
    7.6726   -2.3640   -4.1801 H   0  0  0  0  0  0  0  0  0  0  0  0
   -5.0867    2.6437   -0.0476 H   0  0  0  0  0  0  0  0  0  0  0  0
  1 35  1  0  0  0  0
  1 71  1  0  0  0  0
  2  1  2  0  0  0  0
  3  2  1  0  0  0  0
  3 36  1  0  0  0  0
  4  3  1  0  0  0  0
  4 37  1  0  0  0  0
  5  4  1  0  0  0  0
  5 38  1  0  0  0  0
  5 39  1  0  0  0  0
  6  5  1  0  0  0  0
  6 40  1  0  0  0  0
  6 41  1  0  0  0  0
  7  6  1  0  0  0  0
  7 42  1  0  0  0  0
  7 43  1  0  0  0  0
  8  7  1  0  0  0  0
  8 44  1  0  0  0  0
  8 45  1  0  0  0  0
  9  8  1  0  0  0  0
  9  4  1  0  0  0  0
  9 46  1  0  0  0  0
  9 47  1  0  0  0  0
 10  2  1  0  0  0  0
 10 48  1  0  0  0  0
 11 10  1  0  0  0  0
 12 11  2  0  0  0  0
 12 49  1  0  0  0  0
 13 12  1  0  0  0  0
 13 50  1  0  0  0  0
 14 13  2  0  0  0  0
 15 14  1  0  0  0  0
 16 15  1  0  0  0  0
 17 16  1  0  0  0  0
 18 17  2  0  0  0  0
 18 51  1  0  0  0  0
 19 18  1  0  0  0  0
 19 52  1  0  0  0  0
 20 19  2  0  0  0  0
 21 20  1  0  0  0  0
 21 53  1  0  0  0  0
 22 21  1  0  0  0  0
 23 22  2  0  0  0  0
 23 54  1  0  0  0  0
 23 72  1  0  0  0  0
 24 22  1  0  0  0  0
 24 55  1  0  0  0  0
 25 24  1  0  0  0  0
 25 56  1  0  0  0  0
 26 25  1  0  0  0  0
 26 57  1  0  0  0  0
 26 58  1  0  0  0  0
 27 26  1  0  0  0  0
 27 59  1  0  0  0  0
 27 60  1  0  0  0  0
 28 27  1  0  0  0  0
 28 61  1  0  0  0  0
 28 62  1  0  0  0  0
 29 28  1  0  0  0  0
 29 63  1  0  0  0  0
 29 64  1  0  0  0  0
 30 29  1  0  0  0  0
 30 25  1  0  0  0  0
 30 65  1  0  0  0  0
 30 66  1  0  0  0  0
 31 20  1  0  0  0  0
 31 67  1  0  0  0  0
 32 31  2  0  0  0  0
 32 17  1  0  0  0  0
 32 68  1  0  0  0  0
 33 14  1  0  0  0  0
 33 69  1  0  0  0  0
 34 33  2  0  0  0  0
 34 11  1  0  0  0  0
 34 70  1  0  0  0  0
M  END
>  <MOL Chiral Flag>
0

>  <energy>
-159.84539116516348

$$$$
