>226_4.sdf
 OpenBabel10102213223D

 35 38  0  0  0  0  0  0  0  0999 V2000
   -6.1775    1.2026   -0.6760 Cl  0  0  0  0  0  0  0  0  0  0  0  0
   -4.5047    0.7805   -0.3592 C   0  0  0  0  0  0  0  0  0  0  0  0
   -3.6441    0.4818   -1.4202 C   0  0  0  0  0  0  0  0  0  0  0  0
   -2.3104    0.1424   -1.1697 C   0  0  0  0  0  0  0  0  0  0  0  0
   -1.8228    0.1137    0.1498 C   0  0  0  0  0  0  0  0  0  0  0  0
   -2.6973    0.4153    1.2101 C   0  0  0  0  0  0  0  0  0  0  0  0
   -4.0313    0.7423    0.9551 C   0  0  0  0  0  0  0  0  0  0  0  0
   -0.3778   -0.2333    0.4418 C   0  0  1  0  0  0  0  0  0  0  0  0
   -0.1412   -1.5615    0.0949 O   0  0  0  0  0  0  0  0  0  0  0  0
    1.1061   -2.1070    0.1429 C   0  0  0  0  0  0  0  0  0  0  0  0
    1.2640   -3.4963    0.1762 C   0  0  0  0  0  0  0  0  0  0  0  0
    2.5439   -4.0527    0.2764 C   0  0  0  0  0  0  0  0  0  0  0  0
    3.6688   -3.2228    0.3460 C   0  0  0  0  0  0  0  0  0  0  0  0
    3.5211   -1.8324    0.2996 C   0  0  0  0  0  0  0  0  0  0  0  0
    2.2407   -1.2708    0.1811 C   0  0  0  0  0  0  0  0  0  0  0  0
    2.0216    0.1887    0.0991 C   0  0  0  0  0  0  0  0  0  0  0  0
    2.9156    0.9766    0.3724 O   0  0  0  0  0  0  0  0  0  0  0  0
    0.6405    0.6645   -0.3059 C   0  0  2  0  0  0  0  0  0  0  0  0
    0.4600    2.1075   -0.0936 N   0  0  0  0  0  0  0  0  0  0  0  0
    1.1313    3.0896   -0.7190 C   0  0  0  0  0  0  0  0  0  0  0  0
    0.6248    4.2786   -0.2504 C   0  0  0  0  0  0  0  0  0  0  0  0
   -0.3391    3.9867    0.6465 N   0  0  0  0  0  0  0  0  0  0  0  0
   -0.4210    2.6656    0.7221 N   0  0  0  0  0  0  0  0  0  0  0  0
   -4.0081    0.5134   -2.4391 H   0  0  0  0  0  0  0  0  0  0  0  0
   -1.6590   -0.0858   -2.0027 H   0  0  0  0  0  0  0  0  0  0  0  0
   -2.3467    0.3922    2.2346 H   0  0  0  0  0  0  0  0  0  0  0  0
   -4.6957    0.9680    1.7797 H   0  0  0  0  0  0  0  0  0  0  0  0
   -0.1923   -0.1254    1.5359 H   0  0  0  0  0  0  0  0  0  0  0  0
    0.3964   -4.1427    0.1403 H   0  0  0  0  0  0  0  0  0  0  0  0
    2.6639   -5.1279    0.3096 H   0  0  0  0  0  0  0  0  0  0  0  0
    4.6561   -3.6582    0.4308 H   0  0  0  0  0  0  0  0  0  0  0  0
    4.3989   -1.2000    0.3433 H   0  0  0  0  0  0  0  0  0  0  0  0
    0.5119    0.4529   -1.3896 H   0  0  0  0  0  0  0  0  0  0  0  0
    1.9106    2.9484   -1.4571 H   0  0  0  0  0  0  0  0  0  0  0  0
    0.9237    5.2770   -0.5394 H   0  0  0  0  0  0  0  0  0  0  0  0
  2  1  1  0  0  0  0
  3  2  2  0  0  0  0
  3 24  1  0  0  0  0
  4  3  1  0  0  0  0
  4 25  1  0  0  0  0
  5  4  2  0  0  0  0
  6  5  1  0  0  0  0
  6 26  1  0  0  0  0
  7  6  2  0  0  0  0
  7  2  1  0  0  0  0
  7 27  1  0  0  0  0
  8  5  1  0  0  0  0
  8 28  1  1  0  0  0
  9  8  1  0  0  0  0
 10  9  1  0  0  0  0
 11 10  2  0  0  0  0
 11 29  1  0  0  0  0
 12 11  1  0  0  0  0
 12 30  1  0  0  0  0
 13 12  2  0  0  0  0
 13 31  1  0  0  0  0
 14 13  1  0  0  0  0
 14 32  1  0  0  0  0
 15 14  2  0  0  0  0
 15 10  1  0  0  0  0
 16 15  1  0  0  0  0
 17 16  2  0  0  0  0
 18 16  1  0  0  0  0
 18  8  1  0  0  0  0
 18 33  1  6  0  0  0
 19 18  1  0  0  0  0
 20 19  1  0  0  0  0
 20 34  1  0  0  0  0
 21 20  2  0  0  0  0
 21 35  1  0  0  0  0
 22 21  1  0  0  0  0
 23 22  2  0  0  0  0
 23 19  1  0  0  0  0
M  END
>  <MOL Chiral Flag>
0

>  <energy>
49.423290265907859

$$$$
