>226_3.sdf
 OpenBabel10102213213D

 35 38  0  0  0  0  0  0  0  0999 V2000
   -5.4952    0.7940    1.3322 Cl  0  0  0  0  0  0  0  0  0  0  0  0
   -3.9363    0.5339    0.5712 C   0  0  0  0  0  0  0  0  0  0  0  0
   -3.7669    0.8177   -0.7857 C   0  0  0  0  0  0  0  0  0  0  0  0
   -2.5256    0.6175   -1.3937 C   0  0  0  0  0  0  0  0  0  0  0  0
   -1.4343    0.1297   -0.6489 C   0  0  0  0  0  0  0  0  0  0  0  0
   -1.6166   -0.1603    0.7168 C   0  0  0  0  0  0  0  0  0  0  0  0
   -2.8624    0.0440    1.3208 C   0  0  0  0  0  0  0  0  0  0  0  0
   -0.0896   -0.0594   -1.3320 C   0  0  2  0  0  0  0  0  0  0  0  0
    0.2846   -1.4047   -1.2959 O   0  0  0  0  0  0  0  0  0  0  0  0
    1.1876   -1.9455   -0.4242 C   0  0  0  0  0  0  0  0  0  0  0  0
    1.4162   -3.3265   -0.4351 C   0  0  0  0  0  0  0  0  0  0  0  0
    2.3026   -3.9005    0.4829 C   0  0  0  0  0  0  0  0  0  0  0  0
    2.9568   -3.0991    1.4241 C   0  0  0  0  0  0  0  0  0  0  0  0
    2.7346   -1.7189    1.4467 C   0  0  0  0  0  0  0  0  0  0  0  0
    1.8620   -1.1369    0.5145 C   0  0  0  0  0  0  0  0  0  0  0  0
    1.6159    0.3111    0.4725 C   0  0  0  0  0  0  0  0  0  0  0  0
    1.9349    1.0439    1.3977 O   0  0  0  0  0  0  0  0  0  0  0  0
    1.0453    0.8554   -0.8037 C   0  0  2  0  0  0  0  0  0  0  0  0
    0.6515    2.2643   -0.6953 N   0  0  0  0  0  0  0  0  0  0  0  0
    1.1548    3.2951   -1.3923 C   0  0  0  0  0  0  0  0  0  0  0  0
    0.4972    4.4240   -0.9601 C   0  0  0  0  0  0  0  0  0  0  0  0
   -0.3845    4.0465   -0.0122 N   0  0  0  0  0  0  0  0  0  0  0  0
   -0.2708    2.7336    0.1306 N   0  0  0  0  0  0  0  0  0  0  0  0
   -4.5958    1.1970   -1.3702 H   0  0  0  0  0  0  0  0  0  0  0  0
   -2.4138    0.8488   -2.4458 H   0  0  0  0  0  0  0  0  0  0  0  0
   -0.8016   -0.5382    1.3160 H   0  0  0  0  0  0  0  0  0  0  0  0
   -2.9923   -0.1763    2.3726 H   0  0  0  0  0  0  0  0  0  0  0  0
   -0.2095    0.2237   -2.4011 H   0  0  0  0  0  0  0  0  0  0  0  0
    0.9008   -3.9558   -1.1495 H   0  0  0  0  0  0  0  0  0  0  0  0
    2.4769   -4.9687    0.4697 H   0  0  0  0  0  0  0  0  0  0  0  0
    3.6394   -3.5481    2.1343 H   0  0  0  0  0  0  0  0  0  0  0  0
    3.2536   -1.1065    2.1735 H   0  0  0  0  0  0  0  0  0  0  0  0
    1.8670    0.7542   -1.5494 H   0  0  0  0  0  0  0  0  0  0  0  0
    1.9287    3.2288   -2.1455 H   0  0  0  0  0  0  0  0  0  0  0  0
    0.6429    5.4396   -1.3014 H   0  0  0  0  0  0  0  0  0  0  0  0
  2  1  1  0  0  0  0
  3  2  2  0  0  0  0
  3 24  1  0  0  0  0
  4  3  1  0  0  0  0
  4 25  1  0  0  0  0
  5  4  2  0  0  0  0
  6  5  1  0  0  0  0
  6 26  1  0  0  0  0
  7  6  2  0  0  0  0
  7  2  1  0  0  0  0
  7 27  1  0  0  0  0
  8  5  1  0  0  0  0
  8 28  1  6  0  0  0
  9  8  1  0  0  0  0
 10  9  1  0  0  0  0
 11 10  2  0  0  0  0
 11 29  1  0  0  0  0
 12 11  1  0  0  0  0
 12 30  1  0  0  0  0
 13 12  2  0  0  0  0
 13 31  1  0  0  0  0
 14 13  1  0  0  0  0
 14 32  1  0  0  0  0
 15 14  2  0  0  0  0
 15 10  1  0  0  0  0
 16 15  1  0  0  0  0
 17 16  2  0  0  0  0
 18 16  1  0  0  0  0
 18  8  1  0  0  0  0
 18 33  1  6  0  0  0
 19 18  1  0  0  0  0
 20 19  1  0  0  0  0
 20 34  1  0  0  0  0
 21 20  2  0  0  0  0
 21 35  1  0  0  0  0
 22 21  1  0  0  0  0
 23 22  2  0  0  0  0
 23 19  1  0  0  0  0
M  END
>  <MOL Chiral Flag>
0

>  <energy>
49.423290265907859

$$$$
