>226_2.sdf
 OpenBabel10102213213D

 35 38  0  0  0  0  0  0  0  0999 V2000
   -6.0392    1.3379   -0.4922 Cl  0  0  0  0  0  0  0  0  0  0  0  0
   -4.4114    0.8173   -0.0982 C   0  0  0  0  0  0  0  0  0  0  0  0
   -3.3884    0.9496   -1.0404 C   0  0  0  0  0  0  0  0  0  0  0  0
   -2.0914    0.5347   -0.7293 C   0  0  0  0  0  0  0  0  0  0  0  0
   -1.8026   -0.0184    0.5323 C   0  0  0  0  0  0  0  0  0  0  0  0
   -2.8413   -0.1586    1.4694 C   0  0  0  0  0  0  0  0  0  0  0  0
   -4.1373    0.2625    1.1555 C   0  0  0  0  0  0  0  0  0  0  0  0
   -0.4034   -0.4881    0.8721 C   0  0  1  0  0  0  0  0  0  0  0  0
    0.0629   -1.3659   -0.0896 O   0  0  0  0  0  0  0  0  0  0  0  0
    1.2913   -1.9261    0.0235 C   0  0  0  0  0  0  0  0  0  0  0  0
    1.5417   -3.1815   -0.5419 C   0  0  0  0  0  0  0  0  0  0  0  0
    2.8033   -3.7694   -0.4108 C   0  0  0  0  0  0  0  0  0  0  0  0
    3.8231   -3.0970    0.2700 C   0  0  0  0  0  0  0  0  0  0  0  0
    3.5848   -1.8345    0.8248 C   0  0  0  0  0  0  0  0  0  0  0  0
    2.3133   -1.2459    0.7126 C   0  0  0  0  0  0  0  0  0  0  0  0
    2.0196    0.0990    1.2710 C   0  0  0  0  0  0  0  0  0  0  0  0
    2.9178    0.7861    1.7345 O   0  0  0  0  0  0  0  0  0  0  0  0
    0.6087    0.6491    1.2090 C   0  0  1  0  0  0  0  0  0  0  0  0
    0.5520    1.8123    0.3168 N   0  0  0  0  0  0  0  0  0  0  0  0
    0.8697    1.8897   -0.9873 C   0  0  0  0  0  0  0  0  0  0  0  0
    0.6531    3.1965   -1.3687 C   0  0  0  0  0  0  0  0  0  0  0  0
    0.2190    3.8728   -0.2874 N   0  0  0  0  0  0  0  0  0  0  0  0
    0.1695    3.0130    0.7202 N   0  0  0  0  0  0  0  0  0  0  0  0
   -3.5982    1.3689   -2.0164 H   0  0  0  0  0  0  0  0  0  0  0  0
   -1.3217    0.6277   -1.4797 H   0  0  0  0  0  0  0  0  0  0  0  0
   -2.6465   -0.5877    2.4441 H   0  0  0  0  0  0  0  0  0  0  0  0
   -4.9282    0.1551    1.8863 H   0  0  0  0  0  0  0  0  0  0  0  0
   -0.4567   -1.0820    1.8154 H   0  0  0  0  0  0  0  0  0  0  0  0
    0.7547   -3.7075   -1.0676 H   0  0  0  0  0  0  0  0  0  0  0  0
    2.9909   -4.7471   -0.8365 H   0  0  0  0  0  0  0  0  0  0  0  0
    4.7995   -3.5544    0.3661 H   0  0  0  0  0  0  0  0  0  0  0  0
    4.3859   -1.3227    1.3428 H   0  0  0  0  0  0  0  0  0  0  0  0
    0.3195    0.9994    2.2260 H   0  0  0  0  0  0  0  0  0  0  0  0
    1.2214    1.0729   -1.6017 H   0  0  0  0  0  0  0  0  0  0  0  0
    0.7964    3.6308   -2.3486 H   0  0  0  0  0  0  0  0  0  0  0  0
  2  1  1  0  0  0  0
  3  2  2  0  0  0  0
  3 24  1  0  0  0  0
  4  3  1  0  0  0  0
  4 25  1  0  0  0  0
  5  4  2  0  0  0  0
  6  5  1  0  0  0  0
  6 26  1  0  0  0  0
  7  6  2  0  0  0  0
  7  2  1  0  0  0  0
  7 27  1  0  0  0  0
  8  5  1  0  0  0  0
  8 28  1  1  0  0  0
  9  8  1  0  0  0  0
 10  9  1  0  0  0  0
 11 10  2  0  0  0  0
 11 29  1  0  0  0  0
 12 11  1  0  0  0  0
 12 30  1  0  0  0  0
 13 12  2  0  0  0  0
 13 31  1  0  0  0  0
 14 13  1  0  0  0  0
 14 32  1  0  0  0  0
 15 14  2  0  0  0  0
 15 10  1  0  0  0  0
 16 15  1  0  0  0  0
 17 16  2  0  0  0  0
 18 16  1  0  0  0  0
 18  8  1  0  0  0  0
 18 33  1  1  0  0  0
 19 18  1  0  0  0  0
 20 19  1  0  0  0  0
 20 34  1  0  0  0  0
 21 20  2  0  0  0  0
 21 35  1  0  0  0  0
 22 21  1  0  0  0  0
 23 22  2  0  0  0  0
 23 19  1  0  0  0  0
M  END
>  <MOL Chiral Flag>
0

>  <energy>
49.423290265907859

$$$$
