>227.sdf
 OpenBabel10052220443D

 52 56  0  0  0  0  0  0  0  0999 V2000
   -2.8184    2.2655    2.3733 C   0  0  0  0  0  0  0  0  0  0  0  0
   -2.8701    2.7690    0.9283 C   0  0  0  0  0  0  0  0  0  0  0  0
   -2.6853    1.6407   -0.0681 C   0  0  0  0  0  0  0  0  0  0  0  0
   -3.7787    1.2786   -0.8730 C   0  0  0  0  0  0  0  0  0  0  0  0
   -3.6653    0.2579   -1.8108 C   0  0  0  0  0  0  0  0  0  0  0  0
   -2.4677   -0.4336   -1.9538 C   0  0  0  0  0  0  0  0  0  0  0  0
   -1.3552   -0.1166   -1.1542 C   0  0  0  0  0  0  0  0  0  0  0  0
   -1.4468    0.9527   -0.2237 C   0  0  0  0  0  0  0  0  0  0  0  0
   -0.2818    1.3645    0.4977 N   0  0  0  0  0  0  0  0  0  0  0  0
    1.0355    0.8911    0.1138 C   0  0  1  0  0  0  0  0  0  0  0  0
    0.9750   -0.6196   -0.2039 C   0  0  2  0  0  0  0  0  0  0  0  0
    2.3516   -1.2224   -0.5562 C   0  0  0  0  0  0  0  0  0  0  0  0
   -0.0613   -0.9069   -1.3300 C   0  0  1  0  0  0  0  0  0  0  0  0
   -0.3461   -2.4035   -1.3902 C   0  0  0  0  0  0  0  0  0  0  0  0
   -0.9548   -3.0674   -0.3067 C   0  0  0  0  0  0  0  0  0  0  0  0
   -1.2140   -4.4391   -0.3758 C   0  0  0  0  0  0  0  0  0  0  0  0
   -0.8715   -5.1603   -1.5219 C   0  0  0  0  0  0  0  0  0  0  0  0
   -0.2702   -4.5113   -2.6029 C   0  0  0  0  0  0  0  0  0  0  0  0
   -0.0086   -3.1393   -2.5408 C   0  0  0  0  0  0  0  0  0  0  0  0
    1.6272    1.7591   -1.0003 C   0  0  0  0  0  0  0  0  0  0  0  0
    1.1510    1.8729   -2.1191 O   0  0  0  0  0  0  0  0  0  0  0  0
    2.7413    2.4110   -0.6211 N   0  0  0  0  0  0  0  0  0  0  0  0
    3.0003    2.0928    0.7070 C   0  0  0  0  0  0  0  0  0  0  0  0
    4.0502    2.5597    1.4939 C   0  0  0  0  0  0  0  0  0  0  0  0
    4.1253    2.1207    2.8267 C   0  0  0  0  0  0  0  0  0  0  0  0
    3.1535    1.2335    3.3376 C   0  0  0  0  0  0  0  0  0  0  0  0
    2.1048    0.7815    2.5167 C   0  0  0  0  0  0  0  0  0  0  0  0
    2.0523    1.2277    1.1940 C   0  0  0  0  0  0  0  0  0  0  0  0
   -1.8492    1.7926    2.6249 H   0  0  0  0  0  0  0  0  0  0  0  0
   -2.9786    3.1176    3.0668 H   0  0  0  0  0  0  0  0  0  0  0  0
   -3.6239    1.5188    2.5406 H   0  0  0  0  0  0  0  0  0  0  0  0
   -3.8685    3.2410    0.7975 H   0  0  0  0  0  0  0  0  0  0  0  0
   -2.1159    3.5644    0.7505 H   0  0  0  0  0  0  0  0  0  0  0  0
   -4.7258    1.7950   -0.7768 H   0  0  0  0  0  0  0  0  0  0  0  0
   -4.5153   -0.0040   -2.4278 H   0  0  0  0  0  0  0  0  0  0  0  0
   -2.4078   -1.2290   -2.6861 H   0  0  0  0  0  0  0  0  0  0  0  0
   -0.3237    2.2214    1.0657 H   0  0  0  0  0  0  0  0  0  0  0  0
    0.6236   -1.1020    0.7349 H   0  0  0  0  0  0  0  0  0  0  0  0
    2.2714   -2.3186   -0.7101 H   0  0  0  0  0  0  0  0  0  0  0  0
    3.0776   -1.0597    0.2672 H   0  0  0  0  0  0  0  0  0  0  0  0
    2.7556   -0.7646   -1.4838 H   0  0  0  0  0  0  0  0  0  0  0  0
    0.3612   -0.5801   -2.3056 H   0  0  0  0  0  0  0  0  0  0  0  0
   -1.2314   -2.5216    0.5864 H   0  0  0  0  0  0  0  0  0  0  0  0
   -1.6822   -4.9431    0.4598 H   0  0  0  0  0  0  0  0  0  0  0  0
   -1.0735   -6.2224   -1.5730 H   0  0  0  0  0  0  0  0  0  0  0  0
   -0.0068   -5.0717   -3.4905 H   0  0  0  0  0  0  0  0  0  0  0  0
    0.4577   -2.6510   -3.3872 H   0  0  0  0  0  0  0  0  0  0  0  0
    3.2957    3.0478   -1.2122 H   0  0  0  0  0  0  0  0  0  0  0  0
    4.7869    3.2427    1.0915 H   0  0  0  0  0  0  0  0  0  0  0  0
    4.9293    2.4656    3.4637 H   0  0  0  0  0  0  0  0  0  0  0  0
    3.2153    0.9000    4.3652 H   0  0  0  0  0  0  0  0  0  0  0  0
    1.3563    0.1016    2.9018 H   0  0  0  0  0  0  0  0  0  0  0  0
  1 29  1  0  0  0  0
  1 30  1  0  0  0  0
  1 31  1  0  0  0  0
  2  1  1  0  0  0  0
  2 32  1  0  0  0  0
  2 33  1  0  0  0  0
  3  2  1  0  0  0  0
  4  3  2  0  0  0  0
  4 34  1  0  0  0  0
  5  4  1  0  0  0  0
  5 35  1  0  0  0  0
  6  5  2  0  0  0  0
  6 36  1  0  0  0  0
  7  6  1  0  0  0  0
  8  7  2  0  0  0  0
  8  3  1  0  0  0  0
  9  8  1  0  0  0  0
  9 37  1  0  0  0  0
 10  9  1  1  0  0  0
 11 10  1  0  0  0  0
 11 38  1  1  0  0  0
 12 11  1  0  0  0  0
 12 39  1  0  0  0  0
 12 40  1  0  0  0  0
 12 41  1  0  0  0  0
 13 11  1  0  0  0  0
 13  7  1  0  0  0  0
 13 42  1  6  0  0  0
 14 13  1  0  0  0  0
 15 14  2  0  0  0  0
 15 43  1  0  0  0  0
 16 15  1  0  0  0  0
 16 44  1  0  0  0  0
 17 16  2  0  0  0  0
 17 45  1  0  0  0  0
 18 17  1  0  0  0  0
 18 46  1  0  0  0  0
 19 18  2  0  0  0  0
 19 14  1  0  0  0  0
 19 47  1  0  0  0  0
 20 10  1  0  0  0  0
 21 20  2  0  0  0  0
 22 20  1  0  0  0  0
 22 48  1  0  0  0  0
 23 22  1  0  0  0  0
 24 23  2  0  0  0  0
 24 49  1  0  0  0  0
 25 24  1  0  0  0  0
 25 50  1  0  0  0  0
 26 25  2  0  0  0  0
 26 51  1  0  0  0  0
 27 26  1  0  0  0  0
 27 52  1  0  0  0  0
 28 27  2  0  0  0  0
 28 10  1  0  0  0  0
 28 23  1  0  0  0  0
M  END
>  <MOL Chiral Flag>
0

>  <energy>
95.616899101158097

$$$$
