>228.sdf
 OpenBabel10052220453D

 35 37  0  0  0  0  0  0  0  0999 V2000
    5.9889   -4.7225   -1.8612 F   0  0  0  0  0  0  0  0  0  0  0  0
    4.7929   -4.0910   -1.9633 C   0  0  0  0  0  0  0  0  0  0  0  0
    3.7307   -4.4510   -1.1250 C   0  0  0  0  0  0  0  0  0  0  0  0
    2.4881   -3.8040   -1.2360 C   0  0  0  0  0  0  0  0  0  0  0  0
    2.3068   -2.7945   -2.1965 C   0  0  0  0  0  0  0  0  0  0  0  0
    0.9734   -2.1048   -2.4027 C   0  0  0  0  0  0  0  0  0  0  0  0
    0.4596   -1.1982   -1.2566 C   0  0  0  0  0  0  0  0  0  0  0  0
   -0.4736   -0.2513   -1.8516 N   0  0  0  0  0  0  0  0  0  0  0  0
   -1.8774   -0.2278   -1.6293 C   0  0  0  0  0  0  0  0  0  0  0  0
   -2.7109   -0.5492   -2.7090 C   0  0  0  0  0  0  0  0  0  0  0  0
   -4.0930   -0.4445   -2.5857 C   0  0  0  0  0  0  0  0  0  0  0  0
   -4.6429    0.0113   -1.4347 N   0  0  0  0  0  0  0  0  0  0  0  0
   -3.8762    0.3676   -0.3675 C   0  0  0  0  0  0  0  0  0  0  0  0
   -4.4917    0.8993    0.7678 C   0  0  0  0  0  0  0  0  0  0  0  0
   -3.7192    1.3090    1.8561 C   0  0  0  0  0  0  0  0  0  0  0  0
   -4.4996    2.0076    3.2642 Cl  0  0  0  0  0  0  0  0  0  0  0  0
   -2.3269    1.1775    1.8153 C   0  0  0  0  0  0  0  0  0  0  0  0
   -1.6957    0.6481    0.6811 C   0  0  0  0  0  0  0  0  0  0  0  0
   -2.4627    0.2408   -0.4286 C   0  0  0  0  0  0  0  0  0  0  0  0
    3.3894   -2.4420   -3.0308 C   0  0  0  0  0  0  0  0  0  0  0  0
    4.6209   -3.0843   -2.9118 C   0  0  0  0  0  0  0  0  0  0  0  0
    3.8703   -5.2380   -0.3956 H   0  0  0  0  0  0  0  0  0  0  0  0
    1.6718   -4.1018   -0.5916 H   0  0  0  0  0  0  0  0  0  0  0  0
    1.1094   -1.4548   -3.2927 H   0  0  0  0  0  0  0  0  0  0  0  0
    0.1880   -2.8412   -2.6782 H   0  0  0  0  0  0  0  0  0  0  0  0
    1.3068   -0.6106   -0.8437 H   0  0  0  0  0  0  0  0  0  0  0  0
    0.0078   -1.8015   -0.4375 H   0  0  0  0  0  0  0  0  0  0  0  0
   -0.1421    0.2380   -2.6963 H   0  0  0  0  0  0  0  0  0  0  0  0
   -2.2804   -0.8841   -3.6441 H   0  0  0  0  0  0  0  0  0  0  0  0
   -4.7301   -0.7034   -3.4214 H   0  0  0  0  0  0  0  0  0  0  0  0
   -5.5693    1.0148    0.7966 H   0  0  0  0  0  0  0  0  0  0  0  0
   -1.7323    1.5010    2.6602 H   0  0  0  0  0  0  0  0  0  0  0  0
   -0.6173    0.5760    0.6683 H   0  0  0  0  0  0  0  0  0  0  0  0
    3.2772   -1.6706   -3.7831 H   0  0  0  0  0  0  0  0  0  0  0  0
    5.4390   -2.8036   -3.5644 H   0  0  0  0  0  0  0  0  0  0  0  0
  2  1  1  0  0  0  0
  3  2  2  0  0  0  0
  3 22  1  0  0  0  0
  4  3  1  0  0  0  0
  4 23  1  0  0  0  0
  5  4  2  0  0  0  0
  6  5  1  0  0  0  0
  6 24  1  0  0  0  0
  6 25  1  0  0  0  0
  7  6  1  0  0  0  0
  7 26  1  0  0  0  0
  7 27  1  0  0  0  0
  8  7  1  0  0  0  0
  8 28  1  0  0  0  0
  9  8  1  0  0  0  0
 10  9  2  0  0  0  0
 10 29  1  0  0  0  0
 11 10  1  0  0  0  0
 11 30  1  0  0  0  0
 12 11  2  0  0  0  0
 13 12  1  0  0  0  0
 14 13  2  0  0  0  0
 14 31  1  0  0  0  0
 15 14  1  0  0  0  0
 16 15  1  0  0  0  0
 17 15  2  0  0  0  0
 17 32  1  0  0  0  0
 18 17  1  0  0  0  0
 18 33  1  0  0  0  0
 19 18  2  0  0  0  0
 19  9  1  0  0  0  0
 19 13  1  0  0  0  0
 20  5  1  0  0  0  0
 20 34  1  0  0  0  0
 21 20  2  0  0  0  0
 21  2  1  0  0  0  0
 21 35  1  0  0  0  0
M  END
>  <MOL Chiral Flag>
0

>  <energy>
61.312169736695139

$$$$
