>232.sdf
 OpenBabel10052220473D

 31 33  0  0  0  0  0  0  0  0999 V2000
   -4.8477    0.5585    1.0262 C   0  0  0  0  0  0  0  0  0  0  0  0
   -4.5887   -0.3014   -0.0217 O   0  0  0  0  0  0  0  0  0  0  0  0
   -3.4002   -0.9347   -0.1144 C   0  0  0  0  0  0  0  0  0  0  0  0
   -2.2019   -0.2191   -0.2716 C   0  0  0  0  0  0  0  0  0  0  0  0
   -0.9701   -0.8970   -0.2570 C   0  0  0  0  0  0  0  0  0  0  0  0
   -0.9503   -2.2900   -0.0867 C   0  0  0  0  0  0  0  0  0  0  0  0
   -2.1499   -3.0016    0.0115 C   0  0  0  0  0  0  0  0  0  0  0  0
   -3.3699   -2.3251   -0.0073 C   0  0  0  0  0  0  0  0  0  0  0  0
    0.2896   -0.1454   -0.4128 C   0  0  0  0  0  0  0  0  0  0  0  0
    1.3536   -0.4304    0.3885 N   0  0  0  0  0  0  0  0  0  0  0  0
    2.5143    0.2701    0.2905 C   0  0  0  0  0  0  0  0  0  0  0  0
    2.6518    1.2689   -0.6937 C   0  0  0  0  0  0  0  0  0  0  0  0
    3.8616    1.9789   -0.8023 C   0  0  0  0  0  0  0  0  0  0  0  0
    4.9095    1.7108    0.0829 C   0  0  0  0  0  0  0  0  0  0  0  0
    4.7612    0.7356    1.0738 C   0  0  0  0  0  0  0  0  0  0  0  0
    3.5690    0.0106    1.1749 C   0  0  0  0  0  0  0  0  0  0  0  0
    1.5578    1.5301   -1.5331 C   0  0  0  0  0  0  0  0  0  0  0  0
    1.6312    2.3753   -2.4080 O   0  0  0  0  0  0  0  0  0  0  0  0
    0.3896    0.8329   -1.3563 N   0  0  0  0  0  0  0  0  0  0  0  0
   -4.1523    1.4238    1.0249 H   0  0  0  0  0  0  0  0  0  0  0  0
   -4.7348    0.0046    1.9860 H   0  0  0  0  0  0  0  0  0  0  0  0
   -5.8926    0.9215    0.9602 H   0  0  0  0  0  0  0  0  0  0  0  0
   -2.2262    0.8604   -0.3667 H   0  0  0  0  0  0  0  0  0  0  0  0
   -0.0107   -2.8275   -0.0681 H   0  0  0  0  0  0  0  0  0  0  0  0
   -2.1361   -4.0780    0.1133 H   0  0  0  0  0  0  0  0  0  0  0  0
   -4.2959   -2.8759    0.0952 H   0  0  0  0  0  0  0  0  0  0  0  0
    3.9904    2.7431   -1.5587 H   0  0  0  0  0  0  0  0  0  0  0  0
    5.8353    2.2660    0.0048 H   0  0  0  0  0  0  0  0  0  0  0  0
    5.5721    0.5412    1.7638 H   0  0  0  0  0  0  0  0  0  0  0  0
    3.4627   -0.7422    1.9461 H   0  0  0  0  0  0  0  0  0  0  0  0
   -0.4223    1.0361   -1.9844 H   0  0  0  0  0  0  0  0  0  0  0  0
  1 20  1  0  0  0  0
  1 21  1  0  0  0  0
  1 22  1  0  0  0  0
  2  1  1  0  0  0  0
  3  2  1  0  0  0  0
  4  3  2  0  0  0  0
  4 23  1  0  0  0  0
  5  4  1  0  0  0  0
  6  5  2  0  0  0  0
  6 24  1  0  0  0  0
  7  6  1  0  0  0  0
  7 25  1  0  0  0  0
  8  7  2  0  0  0  0
  8  3  1  0  0  0  0
  8 26  1  0  0  0  0
  9  5  1  0  0  0  0
 10  9  2  0  0  0  0
 11 10  1  0  0  0  0
 12 11  2  0  0  0  0
 13 12  1  0  0  0  0
 13 27  1  0  0  0  0
 14 13  2  0  0  0  0
 14 28  1  0  0  0  0
 15 14  1  0  0  0  0
 15 29  1  0  0  0  0
 16 15  2  0  0  0  0
 16 11  1  0  0  0  0
 16 30  1  0  0  0  0
 17 12  1  0  0  0  0
 18 17  2  0  0  0  0
 19 17  1  0  0  0  0
 19  9  1  0  0  0  0
 19 31  1  0  0  0  0
M  END
>  <MOL Chiral Flag>
0

>  <energy>
12.930747161383621

$$$$
