>234.sdf
 OpenBabel10052220483D

 70 75  0  0  0  0  0  0  0  0999 V2000
    1.5554   -5.5548   -0.5950 C   0  0  0  0  0  0  0  0  0  0  0  0
    1.3935   -4.8871    0.6021 O   0  0  0  0  0  0  0  0  0  0  0  0
    1.6047   -3.5573    0.7914 C   0  0  0  0  0  0  0  0  0  0  0  0
    2.0910   -2.7183   -0.2276 C   0  0  0  0  0  0  0  0  0  0  0  0
    2.2708   -1.3514    0.0081 C   0  0  0  0  0  0  0  0  0  0  0  0
    1.9556   -0.7855    1.2568 C   0  0  0  0  0  0  0  0  0  0  0  0
    1.5126   -1.6439    2.2801 C   0  0  0  0  0  0  0  0  0  0  0  0
    1.3326   -3.0091    2.0458 C   0  0  0  0  0  0  0  0  0  0  0  0
    2.1414    0.7211    1.4618 C   0  0  2  0  0  0  0  0  0  0  0  0
    1.6717    1.3547    2.7887 C   0  0  0  0  0  0  0  0  0  0  0  0
    0.1374    1.5444    2.8986 C   0  0  2  0  0  0  0  0  0  0  0  0
   -0.6205    0.3320    3.4289 C   0  0  0  0  0  0  0  0  0  0  0  0
   -0.3893   -0.0827    4.7547 C   0  0  0  0  0  0  0  0  0  0  0  0
   -1.0644   -1.1846    5.2849 C   0  0  0  0  0  0  0  0  0  0  0  0
   -1.9860   -1.8922    4.5012 C   0  0  0  0  0  0  0  0  0  0  0  0
   -2.7154   -3.0774    5.0613 C   0  0  0  0  0  0  0  0  0  0  0  0
   -2.2268   -1.4859    3.1824 C   0  0  0  0  0  0  0  0  0  0  0  0
   -1.5545   -0.3834    2.6477 C   0  0  0  0  0  0  0  0  0  0  0  0
   -0.4389    2.1098    1.6151 C   0  0  0  0  0  0  0  0  0  0  0  0
   -1.7168    2.6861    1.6628 C   0  0  0  0  0  0  0  0  0  0  0  0
   -2.2757    3.2595    0.5318 C   0  0  0  0  0  0  0  0  0  0  0  0
   -1.5749    3.2670   -0.6671 C   0  0  0  0  0  0  0  0  0  0  0  0
   -0.3021    2.6750   -0.7712 C   0  0  0  0  0  0  0  0  0  0  0  0
    0.5904    2.7909   -2.4167 P   0  0  0  0  0  0  0  0  0  0  0  0
    1.1404    1.0708   -2.8356 C   0  0  0  0  0  0  0  0  0  0  0  0
    0.3543   -0.0717   -2.6102 C   0  0  0  0  0  0  0  0  0  0  0  0
    0.8254   -1.3326   -2.9941 C   0  0  0  0  0  0  0  0  0  0  0  0
    2.0846   -1.4629   -3.5877 C   0  0  0  0  0  0  0  0  0  0  0  0
    2.8774   -0.3336   -3.7949 C   0  0  0  0  0  0  0  0  0  0  0  0
    2.4068    0.9266   -3.4216 C   0  0  0  0  0  0  0  0  0  0  0  0
   -0.8058    2.8840   -3.6482 C   0  0  0  0  0  0  0  0  0  0  0  0
   -1.9522    2.0690   -3.5631 C   0  0  0  0  0  0  0  0  0  0  0  0
   -2.9637    2.1697   -4.5218 C   0  0  0  0  0  0  0  0  0  0  0  0
   -2.8432    3.0783   -5.5741 C   0  0  0  0  0  0  0  0  0  0  0  0
   -1.7127    3.8934   -5.6655 C   0  0  0  0  0  0  0  0  0  0  0  0
   -0.6996    3.7990   -4.7053 C   0  0  0  0  0  0  0  0  0  0  0  0
    0.2844    2.0879    0.3933 C   0  0  0  0  0  0  0  0  0  0  0  0
    1.5776    1.4735    0.3457 N   0  0  0  0  0  0  0  0  0  0  0  0
    0.8754   -5.1308   -1.3653 H   0  0  0  0  0  0  0  0  0  0  0  0
    2.6101   -5.4886   -0.9361 H   0  0  0  0  0  0  0  0  0  0  0  0
    1.2978   -6.6240   -0.4503 H   0  0  0  0  0  0  0  0  0  0  0  0
    2.3283   -3.1139   -1.2047 H   0  0  0  0  0  0  0  0  0  0  0  0
    2.6459   -0.7310   -0.7923 H   0  0  0  0  0  0  0  0  0  0  0  0
    1.3172   -1.2770    3.2654 H   0  0  0  0  0  0  0  0  0  0  0  0
    0.9773   -3.6454    2.8470 H   0  0  0  0  0  0  0  0  0  0  0  0
    3.2431    0.8765    1.4306 H   0  0  0  0  0  0  0  0  0  0  0  0
    2.1124    0.8689    3.6847 H   0  0  0  0  0  0  0  0  0  0  0  0
    2.0949    2.3854    2.7658 H   0  0  0  0  0  0  0  0  0  0  0  0
   -0.0012    2.3353    3.6714 H   0  0  0  0  0  0  0  0  0  0  0  0
    0.3177    0.4519    5.3770 H   0  0  0  0  0  0  0  0  0  0  0  0
   -0.8680   -1.4851    6.3066 H   0  0  0  0  0  0  0  0  0  0  0  0
   -2.4844   -3.9781    4.4547 H   0  0  0  0  0  0  0  0  0  0  0  0
   -2.4224   -3.2787    6.1138 H   0  0  0  0  0  0  0  0  0  0  0  0
   -3.8094   -2.8897    5.0322 H   0  0  0  0  0  0  0  0  0  0  0  0
   -2.9366   -2.0261    2.5681 H   0  0  0  0  0  0  0  0  0  0  0  0
   -1.7603   -0.1025    1.6241 H   0  0  0  0  0  0  0  0  0  0  0  0
   -2.2720    2.7043    2.5931 H   0  0  0  0  0  0  0  0  0  0  0  0
   -3.2549    3.7175    0.5877 H   0  0  0  0  0  0  0  0  0  0  0  0
   -2.0315    3.7530   -1.5159 H   0  0  0  0  0  0  0  0  0  0  0  0
   -0.6081   -0.0025   -2.1369 H   0  0  0  0  0  0  0  0  0  0  0  0
    0.2176   -2.2114   -2.8241 H   0  0  0  0  0  0  0  0  0  0  0  0
    2.4493   -2.4392   -3.8792 H   0  0  0  0  0  0  0  0  0  0  0  0
    3.8554   -0.4325   -4.2486 H   0  0  0  0  0  0  0  0  0  0  0  0
    3.0262    1.7979   -3.5960 H   0  0  0  0  0  0  0  0  0  0  0  0
   -2.0825    1.3723   -2.7550 H   0  0  0  0  0  0  0  0  0  0  0  0
   -3.8432    1.5429   -4.4464 H   0  0  0  0  0  0  0  0  0  0  0  0
   -3.6273    3.1524   -6.3166 H   0  0  0  0  0  0  0  0  0  0  0  0
   -1.6206    4.5979   -6.4816 H   0  0  0  0  0  0  0  0  0  0  0  0
    0.1739    4.4328   -4.7888 H   0  0  0  0  0  0  0  0  0  0  0  0
    2.1143    1.4893   -0.5282 H   0  0  0  0  0  0  0  0  0  0  0  0
  1 39  1  0  0  0  0
  1 40  1  0  0  0  0
  1 41  1  0  0  0  0
  2  1  1  0  0  0  0
  3  2  1  0  0  0  0
  4  3  2  0  0  0  0
  4 42  1  0  0  0  0
  5  4  1  0  0  0  0
  5 43  1  0  0  0  0
  6  5  2  0  0  0  0
  7  6  1  0  0  0  0
  7 44  1  0  0  0  0
  8  7  2  0  0  0  0
  8  3  1  0  0  0  0
  8 45  1  0  0  0  0
  9  6  1  0  0  0  0
  9 46  1  6  0  0  0
 10  9  1  0  0  0  0
 10 47  1  0  0  0  0
 10 48  1  0  0  0  0
 11 10  1  0  0  0  0
 11 49  1  1  0  0  0
 12 11  1  0  0  0  0
 13 12  2  0  0  0  0
 13 50  1  0  0  0  0
 14 13  1  0  0  0  0
 14 51  1  0  0  0  0
 15 14  2  0  0  0  0
 16 15  1  0  0  0  0
 16 52  1  0  0  0  0
 16 53  1  0  0  0  0
 16 54  1  0  0  0  0
 17 15  1  0  0  0  0
 17 55  1  0  0  0  0
 18 17  2  0  0  0  0
 18 12  1  0  0  0  0
 18 56  1  0  0  0  0
 19 11  1  0  0  0  0
 20 19  2  0  0  0  0
 20 57  1  0  0  0  0
 21 20  1  0  0  0  0
 21 58  1  0  0  0  0
 22 21  2  0  0  0  0
 22 59  1  0  0  0  0
 23 22  1  0  0  0  0
 24 23  1  0  0  0  0
 25 24  1  0  0  0  0
 26 25  2  0  0  0  0
 26 60  1  0  0  0  0
 27 26  1  0  0  0  0
 27 61  1  0  0  0  0
 28 27  2  0  0  0  0
 28 62  1  0  0  0  0
 29 28  1  0  0  0  0
 29 63  1  0  0  0  0
 30 29  2  0  0  0  0
 30 25  1  0  0  0  0
 30 64  1  0  0  0  0
 31 24  1  0  0  0  0
 32 31  2  0  0  0  0
 32 65  1  0  0  0  0
 33 32  1  0  0  0  0
 33 66  1  0  0  0  0
 34 33  2  0  0  0  0
 34 67  1  0  0  0  0
 35 34  1  0  0  0  0
 35 68  1  0  0  0  0
 36 35  2  0  0  0  0
 36 31  1  0  0  0  0
 36 69  1  0  0  0  0
 37 23  2  0  0  0  0
 37 19  1  0  0  0  0
 38 37  1  0  0  0  0
 38  9  1  0  0  0  0
 38 70  1  0  0  0  0
M  END
>  <MOL Chiral Flag>
0

>  <energy>
143.27955025208735

$$$$
