>235.sdf
 OpenBabel10052220483D

 40 42  0  0  0  0  0  0  0  0999 V2000
    6.9400    0.7606   -3.6745 C   0  0  0  0  0  0  0  0  0  0  0  0
    6.2794    1.3967   -2.4514 C   0  0  0  0  0  0  0  0  0  0  0  0
    4.9661    0.8079   -2.1865 N   0  0  0  0  0  0  0  0  0  0  0  0
    4.6779    0.1394   -1.0717 N   0  0  0  0  0  0  0  0  0  0  0  0
    3.3951   -0.2588   -1.1648 C   0  0  0  0  0  0  0  0  0  0  0  0
    2.6488   -0.9810   -0.2369 C   0  0  0  0  0  0  0  0  0  0  0  0
    1.3128   -1.3069   -0.5698 C   0  0  0  0  0  0  0  0  0  0  0  0
    0.5038   -2.0237    0.3611 N   0  0  0  0  0  0  0  0  0  0  0  0
   -0.6258   -2.8085   -0.0407 C   0  0  0  0  0  0  0  0  0  0  0  0
   -0.4483   -3.7148   -1.2442 C   0  0  0  0  0  0  0  0  0  0  0  0
   -1.8126   -2.7600    0.6590 C   0  0  0  0  0  0  0  0  0  0  0  0
   -3.0129   -3.5958    0.3050 C   0  0  0  0  0  0  0  0  0  0  0  0
   -2.9815   -4.4098   -0.6025 O   0  0  0  0  0  0  0  0  0  0  0  0
   -4.1689   -3.4562    1.0047 O   0  0  0  0  0  0  0  0  0  0  0  0
   -4.3545   -2.5799    2.0286 C   0  0  0  0  0  0  0  0  0  0  0  0
   -5.7046   -2.5251    2.6825 C   0  0  0  0  0  0  0  0  0  0  0  0
   -3.3596   -1.7748    2.4465 C   0  0  0  0  0  0  0  0  0  0  0  0
   -2.0358   -1.8179    1.8006 C   0  0  0  0  0  0  0  0  0  0  0  0
   -1.1740   -1.0413    2.1793 O   0  0  0  0  0  0  0  0  0  0  0  0
    0.7734   -0.8695   -1.8161 C   0  0  0  0  0  0  0  0  0  0  0  0
    1.5538   -0.1196   -2.7119 C   0  0  0  0  0  0  0  0  0  0  0  0
    2.8643    0.1607   -2.3513 C   0  0  0  0  0  0  0  0  0  0  0  0
    3.8687    0.8487   -2.9841 C   0  0  0  0  0  0  0  0  0  0  0  0
    3.7445    1.6562   -4.5411 Cl  0  0  0  0  0  0  0  0  0  0  0  0
    7.9451    1.2062   -3.8277 H   0  0  0  0  0  0  0  0  0  0  0  0
    7.0515   -0.3339   -3.5236 H   0  0  0  0  0  0  0  0  0  0  0  0
    6.3475    0.9359   -4.5933 H   0  0  0  0  0  0  0  0  0  0  0  0
    6.1750    2.4924   -2.5996 H   0  0  0  0  0  0  0  0  0  0  0  0
    6.9433    1.2225   -1.5766 H   0  0  0  0  0  0  0  0  0  0  0  0
    3.0861   -1.2940    0.7030 H   0  0  0  0  0  0  0  0  0  0  0  0
    0.7840   -2.0287    1.3529 H   0  0  0  0  0  0  0  0  0  0  0  0
    0.5805   -3.6452   -1.6543 H   0  0  0  0  0  0  0  0  0  0  0  0
   -1.1595   -3.4435   -2.0515 H   0  0  0  0  0  0  0  0  0  0  0  0
   -0.5858   -4.7751   -0.9439 H   0  0  0  0  0  0  0  0  0  0  0  0
   -5.7487   -1.7689    3.4953 H   0  0  0  0  0  0  0  0  0  0  0  0
   -6.4694   -2.2668    1.9204 H   0  0  0  0  0  0  0  0  0  0  0  0
   -5.9443   -3.5202    3.1112 H   0  0  0  0  0  0  0  0  0  0  0  0
   -3.5257   -1.0748    3.2611 H   0  0  0  0  0  0  0  0  0  0  0  0
   -0.2540   -1.0840   -2.0766 H   0  0  0  0  0  0  0  0  0  0  0  0
    1.1435    0.2276   -3.6511 H   0  0  0  0  0  0  0  0  0  0  0  0
  1 25  1  0  0  0  0
  1 26  1  0  0  0  0
  1 27  1  0  0  0  0
  2  1  1  0  0  0  0
  2 28  1  0  0  0  0
  2 29  1  0  0  0  0
  3  2  1  0  0  0  0
  4  3  1  0  0  0  0
  5  4  2  0  0  0  0
  6  5  1  0  0  0  0
  6 30  1  0  0  0  0
  7  6  2  0  0  0  0
  8  7  1  0  0  0  0
  8 31  1  0  0  0  0
  9  8  1  0  0  0  0
 10  9  1  0  0  0  0
 10 32  1  0  0  0  0
 10 33  1  0  0  0  0
 10 34  1  0  0  0  0
 11  9  2  0  0  0  0
 12 11  1  0  0  0  0
 13 12  2  0  0  0  0
 14 12  1  0  0  0  0
 15 14  1  0  0  0  0
 16 15  1  0  0  0  0
 16 35  1  0  0  0  0
 16 36  1  0  0  0  0
 16 37  1  0  0  0  0
 17 15  2  0  0  0  0
 17 38  1  0  0  0  0
 18 17  1  0  0  0  0
 18 11  1  0  0  0  0
 19 18  2  0  0  0  0
 20  7  1  0  0  0  0
 20 39  1  0  0  0  0
 21 20  2  0  0  0  0
 21 40  1  0  0  0  0
 22 21  1  0  0  0  0
 22  5  1  0  0  0  0
 23 22  2  0  0  0  0
 23  3  1  0  0  0  0
 24 23  1  0  0  0  0
M  END
>  <MOL Chiral Flag>
0

>  <energy>
75.784964222050704

$$$$
