>238.sdf
 OpenBabel10052220493D

 37 40  0  0  0  0  0  0  0  0999 V2000
    5.0426   -3.2716    1.1769 Br  0  0  0  0  0  0  0  0  0  0  0  0
    4.8894   -1.3947    0.9571 C   0  0  0  0  0  0  0  0  0  0  0  0
    6.0503   -0.6084    0.8673 C   0  0  0  0  0  0  0  0  0  0  0  0
    5.9481    0.7845    0.6857 C   0  0  0  0  0  0  0  0  0  0  0  0
    4.6458    1.3517    0.5948 C   0  0  0  0  0  0  0  0  0  0  0  0
    4.2958    2.6438    0.3994 N   0  0  0  0  0  0  0  0  0  0  0  0
    2.9461    2.7194    0.3172 C   0  0  0  0  0  0  0  0  0  0  0  0
    2.4232    1.4446    0.4946 C   0  0  0  0  0  0  0  0  0  0  0  0
    1.0412    1.0269    0.4427 C   0  0  0  0  0  0  0  0  0  0  0  0
    0.1567    1.7047   -0.1815 N   0  0  0  0  0  0  0  0  0  0  0  0
   -1.1049    1.1326   -0.2927 C   0  0  0  0  0  0  0  0  0  0  0  0
   -1.4272   -0.0578   -0.9840 C   0  0  0  0  0  0  0  0  0  0  0  0
   -0.4790   -0.7990   -1.7785 C   0  0  0  0  0  0  0  0  0  0  0  0
    0.2511   -1.4210   -2.4245 N   0  0  0  0  0  0  0  0  0  0  0  0
   -2.7850   -0.4302   -0.7809 C   0  0  0  0  0  0  0  0  0  0  0  0
   -3.4722    0.5074    0.0142 C   0  0  0  0  0  0  0  0  0  0  0  0
   -4.8986    0.4185    0.3830 C   0  0  0  0  0  0  0  0  0  0  0  0
   -5.4084   -1.0151    0.2380 C   0  0  0  0  0  0  0  0  0  0  0  0
   -4.9922   -1.6338   -1.1010 C   0  0  0  0  0  0  0  0  0  0  0  0
   -3.4608   -1.6934   -1.2689 C   0  0  0  0  0  0  0  0  0  0  0  0
   -2.4290    1.7065    0.4880 S   0  0  0  0  0  0  0  0  0  0  0  0
    3.5207    0.5823    0.6779 C   0  0  0  0  0  0  0  0  0  0  0  0
    3.6142   -0.8078    0.8618 C   0  0  0  0  0  0  0  0  0  0  0  0
    7.0217   -1.0840    0.9254 H   0  0  0  0  0  0  0  0  0  0  0  0
    6.8563    1.3762    0.6072 H   0  0  0  0  0  0  0  0  0  0  0  0
    4.9296    3.4486    0.3063 H   0  0  0  0  0  0  0  0  0  0  0  0
    2.4257    3.6677    0.1352 H   0  0  0  0  0  0  0  0  0  0  0  0
    0.8024    0.0534    0.8866 H   0  0  0  0  0  0  0  0  0  0  0  0
   -5.0345    0.7496    1.4261 H   0  0  0  0  0  0  0  0  0  0  0  0
   -5.4788    1.1064   -0.2596 H   0  0  0  0  0  0  0  0  0  0  0  0
   -5.0045   -1.6291    1.0604 H   0  0  0  0  0  0  0  0  0  0  0  0
   -6.5071   -1.0195    0.3326 H   0  0  0  0  0  0  0  0  0  0  0  0
   -5.4315   -1.0433   -1.9243 H   0  0  0  0  0  0  0  0  0  0  0  0
   -5.3995   -2.6538   -1.1850 H   0  0  0  0  0  0  0  0  0  0  0  0
   -3.0600   -2.5415   -0.6787 H   0  0  0  0  0  0  0  0  0  0  0  0
   -3.2243   -1.8878   -2.3270 H   0  0  0  0  0  0  0  0  0  0  0  0
    2.7366   -1.4329    0.9078 H   0  0  0  0  0  0  0  0  0  0  0  0
  2  1  1  0  0  0  0
  3  2  2  0  0  0  0
  3 24  1  0  0  0  0
  4  3  1  0  0  0  0
  4 25  1  0  0  0  0
  5  4  2  0  0  0  0
  6  5  1  0  0  0  0
  6 26  1  0  0  0  0
  7  6  1  0  0  0  0
  7 27  1  0  0  0  0
  8  7  2  0  0  0  0
  9  8  1  0  0  0  0
  9 28  1  0  0  0  0
 10  9  2  0  0  0  0
 11 10  1  0  0  0  0
 12 11  2  0  0  0  0
 13 12  1  0  0  0  0
 14 13  3  0  0  0  0
 15 12  1  0  0  0  0
 16 15  2  0  0  0  0
 17 16  1  0  0  0  0
 17 29  1  0  0  0  0
 17 30  1  0  0  0  0
 18 17  1  0  0  0  0
 18 31  1  0  0  0  0
 18 32  1  0  0  0  0
 19 18  1  0  0  0  0
 19 33  1  0  0  0  0
 19 34  1  0  0  0  0
 20 19  1  0  0  0  0
 20 15  1  0  0  0  0
 20 35  1  0  0  0  0
 20 36  1  0  0  0  0
 21 16  1  0  0  0  0
 21 11  1  0  0  0  0
 22  8  1  0  0  0  0
 22  5  1  0  0  0  0
 23 22  2  0  0  0  0
 23  2  1  0  0  0  0
 23 37  1  0  0  0  0
M  END
>  <MOL Chiral Flag>
0

>  <energy>
50.602242183466188

$$$$
