>246.sdf
 OpenBabel10052220553D

 52 53  0  0  0  0  0  0  0  0999 V2000
   -4.5489    1.9969   -1.8509 C   0  0  0  0  0  0  0  0  0  0  0  0
   -3.8785    0.8994   -2.3466 O   0  0  0  0  0  0  0  0  0  0  0  0
   -3.0418    0.2074   -1.5497 C   0  0  0  0  0  0  0  0  0  0  0  0
   -3.5503   -0.7566   -0.6682 C   0  0  0  0  0  0  0  0  0  0  0  0
   -2.6936   -1.4576    0.1942 C   0  0  0  0  0  0  0  0  0  0  0  0
   -3.2675   -2.5187    1.1110 C   0  0  0  0  0  0  0  0  0  0  0  0
   -2.6455   -2.5415    2.4836 C   0  0  0  0  0  0  0  0  0  0  0  0
   -3.2340   -1.9854    3.5442 C   0  0  0  0  0  0  0  0  0  0  0  0
   -1.3205   -1.1568    0.1830 C   0  0  0  0  0  0  0  0  0  0  0  0
   -0.8098   -0.1774   -0.6885 C   0  0  0  0  0  0  0  0  0  0  0  0
   -1.6722    0.4905   -1.5723 C   0  0  0  0  0  0  0  0  0  0  0  0
   -1.1969    1.4191   -2.4365 O   0  0  0  0  0  0  0  0  0  0  0  0
   -0.8298    2.6884   -2.0480 C   0  0  0  0  0  0  0  0  0  0  0  0
    0.6153    0.1801   -0.5980 C   0  0  0  0  0  0  0  0  0  0  0  0
    1.5691   -0.4111   -1.4378 C   0  0  0  0  0  0  0  0  0  0  0  0
    2.9343   -0.1178   -1.2688 C   0  0  0  0  0  0  0  0  0  0  0  0
    3.9661   -0.7774   -2.1424 C   0  0  0  0  0  0  0  0  0  0  0  0
    4.5272   -1.9865   -1.4426 C   0  0  0  0  0  0  0  0  0  0  0  0
    4.4355   -3.2076   -1.9804 C   0  0  0  0  0  0  0  0  0  0  0  0
    3.3365    0.7655   -0.2527 C   0  0  0  0  0  0  0  0  0  0  0  0
    2.3771    1.3662    0.5819 C   0  0  0  0  0  0  0  0  0  0  0  0
    2.7270    2.2029    1.5845 O   0  0  0  0  0  0  0  0  0  0  0  0
    3.6774    1.8766    2.5250 C   0  0  0  0  0  0  0  0  0  0  0  0
    1.0238    1.0759    0.3986 C   0  0  0  0  0  0  0  0  0  0  0  0
    0.1055    1.6431    1.2168 O   0  0  0  0  0  0  0  0  0  0  0  0
   -0.0602    1.2241    2.5181 C   0  0  0  0  0  0  0  0  0  0  0  0
   -5.1752    2.4430   -2.6480 H   0  0  0  0  0  0  0  0  0  0  0  0
   -3.8171    2.7589   -1.5025 H   0  0  0  0  0  0  0  0  0  0  0  0
   -5.1954    1.7015   -0.9964 H   0  0  0  0  0  0  0  0  0  0  0  0
   -4.6137   -0.9634   -0.6661 H   0  0  0  0  0  0  0  0  0  0  0  0
   -4.3750   -2.4235    1.1745 H   0  0  0  0  0  0  0  0  0  0  0  0
   -3.0808   -3.5156    0.6606 H   0  0  0  0  0  0  0  0  0  0  0  0
   -1.6906   -3.0437    2.6135 H   0  0  0  0  0  0  0  0  0  0  0  0
   -2.7518   -2.0414    4.5158 H   0  0  0  0  0  0  0  0  0  0  0  0
   -4.1812   -1.4659    3.4507 H   0  0  0  0  0  0  0  0  0  0  0  0
   -0.6476   -1.6654    0.8625 H   0  0  0  0  0  0  0  0  0  0  0  0
    0.2662    2.8073   -2.1693 H   0  0  0  0  0  0  0  0  0  0  0  0
   -1.3462    3.4232   -2.6998 H   0  0  0  0  0  0  0  0  0  0  0  0
   -1.1124    2.8939   -0.9924 H   0  0  0  0  0  0  0  0  0  0  0  0
    1.2536   -1.1178   -2.1951 H   0  0  0  0  0  0  0  0  0  0  0  0
    4.7867   -0.0612   -2.3637 H   0  0  0  0  0  0  0  0  0  0  0  0
    3.5125   -1.0579   -3.1183 H   0  0  0  0  0  0  0  0  0  0  0  0
    5.0135   -1.8670   -0.4786 H   0  0  0  0  0  0  0  0  0  0  0  0
    4.8439   -4.0649   -1.4553 H   0  0  0  0  0  0  0  0  0  0  0  0
    3.9559   -3.3608   -2.9428 H   0  0  0  0  0  0  0  0  0  0  0  0
    4.3876    0.9888   -0.1193 H   0  0  0  0  0  0  0  0  0  0  0  0
    4.6700    1.7051    2.0643 H   0  0  0  0  0  0  0  0  0  0  0  0
    3.3455    0.9588    3.0588 H   0  0  0  0  0  0  0  0  0  0  0  0
    3.7511    2.6977    3.2663 H   0  0  0  0  0  0  0  0  0  0  0  0
   -1.1444    1.1936    2.7475 H   0  0  0  0  0  0  0  0  0  0  0  0
    0.3567    0.2027    2.6674 H   0  0  0  0  0  0  0  0  0  0  0  0
    0.4427    1.9322    3.2082 H   0  0  0  0  0  0  0  0  0  0  0  0
  1 27  1  0  0  0  0
  1 28  1  0  0  0  0
  1 29  1  0  0  0  0
  2  1  1  0  0  0  0
  3  2  1  0  0  0  0
  4  3  2  0  0  0  0
  4 30  1  0  0  0  0
  5  4  1  0  0  0  0
  6  5  1  0  0  0  0
  6 31  1  0  0  0  0
  6 32  1  0  0  0  0
  7  6  1  0  0  0  0
  7 33  1  0  0  0  0
  8  7  2  0  0  0  0
  8 34  1  0  0  0  0
  8 35  1  0  0  0  0
  9  5  2  0  0  0  0
  9 36  1  0  0  0  0
 10  9  1  0  0  0  0
 11 10  2  0  0  0  0
 11  3  1  0  0  0  0
 12 11  1  0  0  0  0
 13 12  1  0  0  0  0
 13 37  1  0  0  0  0
 13 38  1  0  0  0  0
 13 39  1  0  0  0  0
 14 10  1  0  0  0  0
 15 14  2  0  0  0  0
 15 40  1  0  0  0  0
 16 15  1  0  0  0  0
 17 16  1  0  0  0  0
 17 41  1  0  0  0  0
 17 42  1  0  0  0  0
 18 17  1  0  0  0  0
 18 43  1  0  0  0  0
 19 18  2  0  0  0  0
 19 44  1  0  0  0  0
 19 45  1  0  0  0  0
 20 16  2  0  0  0  0
 20 46  1  0  0  0  0
 21 20  1  0  0  0  0
 22 21  1  0  0  0  0
 23 22  1  0  0  0  0
 23 47  1  0  0  0  0
 23 48  1  0  0  0  0
 23 49  1  0  0  0  0
 24 21  2  0  0  0  0
 24 14  1  0  0  0  0
 25 24  1  0  0  0  0
 26 25  1  0  0  0  0
 26 50  1  0  0  0  0
 26 51  1  0  0  0  0
 26 52  1  0  0  0  0
M  END
>  <MOL Chiral Flag>
0

>  <energy>
133.77921088094516

$$$$
