>250.sdf
 OpenBabel10062211553D

 17 18  0  0  0  0  0  0  0  0999 V2000
   -2.8795   -1.3719   -0.4756 O   0  0  0  0  0  0  0  0  0  0  0  0
   -1.9179   -0.2887   -0.2949 B   0  0  0  0  0  0  0  0  0  0  0  0
   -2.3095    1.0785    0.0950 O   0  0  0  0  0  0  0  0  0  0  0  0
   -1.0637    1.7324    0.3691 C   0  0  0  0  0  0  0  0  0  0  0  0
    0.0483    0.7441    0.1428 C   0  0  0  0  0  0  0  0  0  0  0  0
   -0.4244   -0.4584   -0.2544 C   0  0  0  0  0  0  0  0  0  0  0  0
    0.4208   -1.5372   -0.5212 C   0  0  0  0  0  0  0  0  0  0  0  0
    1.8050   -1.3506   -0.3667 C   0  0  0  0  0  0  0  0  0  0  0  0
    2.3051   -0.1007    0.0536 C   0  0  0  0  0  0  0  0  0  0  0  0
    3.6391    0.0788    0.2122 F   0  0  0  0  0  0  0  0  0  0  0  0
    1.4178    0.9599    0.3110 C   0  0  0  0  0  0  0  0  0  0  0  0
   -3.3592   -1.4190    0.3910 H   0  0  0  0  0  0  0  0  0  0  0  0
   -1.0467    2.0722    1.4262 H   0  0  0  0  0  0  0  0  0  0  0  0
   -0.9346    2.5965   -0.3169 H   0  0  0  0  0  0  0  0  0  0  0  0
    0.0232   -2.4919   -0.8411 H   0  0  0  0  0  0  0  0  0  0  0  0
    2.4877   -2.1668   -0.5672 H   0  0  0  0  0  0  0  0  0  0  0  0
    1.7885    1.9230    0.6371 H   0  0  0  0  0  0  0  0  0  0  0  0
  1 12  1  0  0  0  0
  2  1  1  0  0  0  0
  3  2  1  0  0  0  0
  4  3  1  0  0  0  0
  4 13  1  0  0  0  0
  4 14  1  0  0  0  0
  5  4  1  0  0  0  0
  6  5  2  0  0  0  0
  6  2  1  0  0  0  0
  7  6  1  0  0  0  0
  7 15  1  0  0  0  0
  8  7  2  0  0  0  0
  8 16  1  0  0  0  0
  9  8  1  0  0  0  0
 10  9  1  0  0  0  0
 11  9  2  0  0  0  0
 11  5  1  0  0  0  0
 11 17  1  0  0  0  0
M  END
>  <MOL Chiral Flag>
0

>  <energy>
-15.324217554747158

$$$$
