>254.sdf
 OpenBabel10062211573D

 32 34  0  0  0  0  0  0  0  0999 V2000
   -5.8403    1.8994   -0.3297 Br  0  0  0  0  0  0  0  0  0  0  0  0
   -4.5532    1.2622    0.9474 C   0  0  0  0  0  0  0  0  0  0  0  0
   -3.4287    0.6113    0.6042 C   0  0  0  0  0  0  0  0  0  0  0  0
   -3.0959    0.3170   -0.8470 C   0  0  0  0  0  0  0  0  0  0  0  0
   -1.5810    0.2080   -1.0225 C   0  0  0  0  0  0  0  0  0  0  0  0
   -1.0202   -0.8363   -0.0476 C   0  0  2  0  0  0  0  0  0  0  0  0
   -1.4424   -0.5029    1.3673 C   0  0  0  0  0  0  0  0  0  0  0  0
   -0.7847   -0.9005    2.3155 O   0  0  0  0  0  0  0  0  0  0  0  0
   -2.5931    0.1877    1.5945 O   0  0  0  0  0  0  0  0  0  0  0  0
    0.4837   -1.0503   -0.2375 C   0  0  0  0  0  0  0  0  0  0  0  0
    0.8873   -2.2810   -0.7923 C   0  0  0  0  0  0  0  0  0  0  0  0
    2.2282   -2.5571   -1.0400 C   0  0  0  0  0  0  0  0  0  0  0  0
    3.2066   -1.6189   -0.7379 C   0  0  0  0  0  0  0  0  0  0  0  0
    2.8549   -0.3870   -0.1743 C   0  0  0  0  0  0  0  0  0  0  0  0
    1.4877   -0.0807    0.0872 C   0  0  0  0  0  0  0  0  0  0  0  0
    1.1842    1.1731    0.6689 C   0  0  0  0  0  0  0  0  0  0  0  0
    2.2020    2.0840    0.9705 C   0  0  0  0  0  0  0  0  0  0  0  0
    3.5327    1.7715    0.7008 C   0  0  0  0  0  0  0  0  0  0  0  0
    3.8602    0.5434    0.1317 C   0  0  0  0  0  0  0  0  0  0  0  0
   -4.7605    1.4452    1.9970 H   0  0  0  0  0  0  0  0  0  0  0  0
   -3.5825   -0.6425   -1.1298 H   0  0  0  0  0  0  0  0  0  0  0  0
   -3.4596    1.1109   -1.5319 H   0  0  0  0  0  0  0  0  0  0  0  0
   -1.1328    1.2061   -0.8452 H   0  0  0  0  0  0  0  0  0  0  0  0
   -1.3523   -0.0846   -2.0705 H   0  0  0  0  0  0  0  0  0  0  0  0
   -1.5523   -1.7805   -0.3012 H   0  0  0  0  0  0  0  0  0  0  0  0
    0.1521   -3.0329   -1.0505 H   0  0  0  0  0  0  0  0  0  0  0  0
    2.5093   -3.5070   -1.4758 H   0  0  0  0  0  0  0  0  0  0  0  0
    4.2443   -1.8552   -0.9421 H   0  0  0  0  0  0  0  0  0  0  0  0
    0.1741    1.4616    0.9047 H   0  0  0  0  0  0  0  0  0  0  0  0
    1.9569    3.0387    1.4182 H   0  0  0  0  0  0  0  0  0  0  0  0
    4.3147    2.4822    0.9366 H   0  0  0  0  0  0  0  0  0  0  0  0
    4.9008    0.3151   -0.0687 H   0  0  0  0  0  0  0  0  0  0  0  0
  2  1  1  0  0  0  0
  2 20  1  0  0  0  0
  3  2  2  0  0  0  0
  4  3  1  0  0  0  0
  4 21  1  0  0  0  0
  4 22  1  0  0  0  0
  5  4  1  0  0  0  0
  5 23  1  0  0  0  0
  5 24  1  0  0  0  0
  6  5  1  0  0  0  0
  6 25  1  6  0  0  0
  7  6  1  0  0  0  0
  8  7  2  0  0  0  0
  9  7  1  0  0  0  0
  9  3  1  0  0  0  0
 10  6  1  0  0  0  0
 11 10  2  0  0  0  0
 11 26  1  0  0  0  0
 12 11  1  0  0  0  0
 12 27  1  0  0  0  0
 13 12  2  0  0  0  0
 13 28  1  0  0  0  0
 14 13  1  0  0  0  0
 15 14  2  0  0  0  0
 15 10  1  0  0  0  0
 16 15  1  0  0  0  0
 16 29  1  0  0  0  0
 17 16  2  0  0  0  0
 17 30  1  0  0  0  0
 18 17  1  0  0  0  0
 18 31  1  0  0  0  0
 19 18  2  0  0  0  0
 19 14  1  0  0  0  0
 19 32  1  0  0  0  0
M  END
>  <MOL Chiral Flag>
0

>  <energy>
74.009070400561697

$$$$
