>256.sdf
 OpenBabel10062211573D

 39 42  0  0  0  0  0  0  0  0999 V2000
   -4.9706   -0.9748    1.0118 C   0  0  0  0  0  0  0  0  0  0  0  0
   -4.0577   -0.0177    0.2856 C   0  0  0  0  0  0  0  0  0  0  0  0
   -4.6128    1.1214   -0.3225 C   0  0  0  0  0  0  0  0  0  0  0  0
   -3.7999    2.0374   -0.9913 C   0  0  0  0  0  0  0  0  0  0  0  0
   -2.4180    1.8507   -1.0370 C   0  0  0  0  0  0  0  0  0  0  0  0
   -1.8378    0.7317   -0.4304 C   0  0  0  0  0  0  0  0  0  0  0  0
   -2.6542   -0.2299    0.2103 C   0  0  0  0  0  0  0  0  0  0  0  0
   -2.0393   -1.3757    0.7460 C   0  0  0  0  0  0  0  0  0  0  0  0
   -0.6474   -1.5472    0.6404 C   0  0  0  0  0  0  0  0  0  0  0  0
   -0.0127   -2.7005    1.1246 C   0  0  0  0  0  0  0  0  0  0  0  0
   -0.6547   -3.5932    1.6526 O   0  0  0  0  0  0  0  0  0  0  0  0
    1.3640   -2.8393    0.9827 C   0  0  0  0  0  0  0  0  0  0  0  0
    2.1284   -1.8028    0.4229 C   0  0  0  0  0  0  0  0  0  0  0  0
    1.5034   -0.6424    0.0056 N   0  0  0  0  0  0  0  0  0  0  0  0
    2.2893    0.5113   -0.3530 C   0  0  0  0  0  0  0  0  0  0  0  0
    2.8202    1.2920    0.6871 C   0  0  0  0  0  0  0  0  0  0  0  0
    3.5729    2.4300    0.4120 C   0  0  0  0  0  0  0  0  0  0  0  0
    3.8090    2.8037   -0.9115 C   0  0  0  0  0  0  0  0  0  0  0  0
    4.7601    4.2384   -1.2505 Cl  0  0  0  0  0  0  0  0  0  0  0  0
    3.2830    2.0349   -1.9606 C   0  0  0  0  0  0  0  0  0  0  0  0
    2.5157    0.8902   -1.6853 C   0  0  0  0  0  0  0  0  0  0  0  0
    0.1326   -0.5297    0.0520 C   0  0  0  0  0  0  0  0  0  0  0  0
   -0.4861    0.5740   -0.4618 N   0  0  0  0  0  0  0  0  0  0  0  0
    3.6313   -1.9911    0.2580 C   0  0  0  0  0  0  0  0  0  0  0  0
    4.0302   -3.2740    0.5949 F   0  0  0  0  0  0  0  0  0  0  0  0
    3.9680   -1.7883   -1.0696 F   0  0  0  0  0  0  0  0  0  0  0  0
    4.3324   -1.1012    1.0459 F   0  0  0  0  0  0  0  0  0  0  0  0
   -4.6575   -1.0496    2.0756 H   0  0  0  0  0  0  0  0  0  0  0  0
   -6.0259   -0.6264    1.0008 H   0  0  0  0  0  0  0  0  0  0  0  0
   -4.9338   -1.9786    0.5419 H   0  0  0  0  0  0  0  0  0  0  0  0
   -5.6811    1.2976   -0.2837 H   0  0  0  0  0  0  0  0  0  0  0  0
   -4.2439    2.9022   -1.4676 H   0  0  0  0  0  0  0  0  0  0  0  0
   -1.7982    2.5742   -1.5515 H   0  0  0  0  0  0  0  0  0  0  0  0
   -2.6346   -2.1404    1.2271 H   0  0  0  0  0  0  0  0  0  0  0  0
    1.8379   -3.7473    1.3353 H   0  0  0  0  0  0  0  0  0  0  0  0
    2.6373    1.0101    1.7174 H   0  0  0  0  0  0  0  0  0  0  0  0
    3.9698    3.0199    1.2296 H   0  0  0  0  0  0  0  0  0  0  0  0
    3.4689    2.3280   -2.9853 H   0  0  0  0  0  0  0  0  0  0  0  0
    2.1118    0.3027   -2.4986 H   0  0  0  0  0  0  0  0  0  0  0  0
  1 28  1  0  0  0  0
  1 29  1  0  0  0  0
  1 30  1  0  0  0  0
  2  1  1  0  0  0  0
  3  2  2  0  0  0  0
  3 31  1  0  0  0  0
  4  3  1  0  0  0  0
  4 32  1  0  0  0  0
  5  4  2  0  0  0  0
  5 33  1  0  0  0  0
  6  5  1  0  0  0  0
  7  6  2  0  0  0  0
  7  2  1  0  0  0  0
  8  7  1  0  0  0  0
  8 34  1  0  0  0  0
  9  8  2  0  0  0  0
 10  9  1  0  0  0  0
 11 10  2  0  0  0  0
 12 10  1  0  0  0  0
 12 35  1  0  0  0  0
 13 12  2  0  0  0  0
 14 13  1  0  0  0  0
 15 14  1  0  0  0  0
 16 15  2  0  0  0  0
 16 36  1  0  0  0  0
 17 16  1  0  0  0  0
 17 37  1  0  0  0  0
 18 17  2  0  0  0  0
 19 18  1  0  0  0  0
 20 18  1  0  0  0  0
 20 38  1  0  0  0  0
 21 20  2  0  0  0  0
 21 15  1  0  0  0  0
 21 39  1  0  0  0  0
 22 14  1  0  0  0  0
 22  9  1  0  0  0  0
 23 22  2  0  0  0  0
 23  6  1  0  0  0  0
 24 13  1  0  0  0  0
 25 24  1  0  0  0  0
 26 24  1  0  0  0  0
 27 24  1  0  0  0  0
M  END
>  <MOL Chiral Flag>
0

>  <energy>
87.58614861940751

$$$$
