>257.sdf
 OpenBabel10062211573D

 24 25  0  0  0  0  0  0  0  0999 V2000
    1.8010   -2.6962   -0.0331 N   0  0  0  0  0  0  0  0  0  0  0  0
    0.4484   -2.5882   -0.2680 N   0  0  0  0  0  0  0  0  0  0  0  0
   -0.3075   -1.9433    0.5506 C   0  0  0  0  0  0  0  0  0  0  0  0
   -1.6698   -1.5606    0.1615 C   0  0  0  0  0  0  0  0  0  0  0  0
   -2.1269   -1.8418   -1.0911 N   0  0  0  0  0  0  0  0  0  0  0  0
   -3.3444   -1.4118   -1.5180 C   0  0  0  0  0  0  0  0  0  0  0  0
   -4.1606   -0.6634   -0.6665 C   0  0  0  0  0  0  0  0  0  0  0  0
   -3.7176   -0.3706    0.6240 C   0  0  0  0  0  0  0  0  0  0  0  0
   -2.4644   -0.8165    1.0430 C   0  0  0  0  0  0  0  0  0  0  0  0
    2.6315   -1.5344   -0.0468 C   0  0  0  0  0  0  0  0  0  0  0  0
    2.1054   -0.2577   -0.3388 C   0  0  0  0  0  0  0  0  0  0  0  0
    2.9273    0.8201   -0.3669 N   0  0  0  0  0  0  0  0  0  0  0  0
    4.2540    0.6931   -0.1207 C   0  0  0  0  0  0  0  0  0  0  0  0
    4.7851   -0.5668    0.1616 C   0  0  0  0  0  0  0  0  0  0  0  0
    3.9667   -1.6536    0.1901 N   0  0  0  0  0  0  0  0  0  0  0  0
    2.2386   -3.6290   -0.0093 H   0  0  0  0  0  0  0  0  0  0  0  0
    0.1034   -1.5601    1.4828 H   0  0  0  0  0  0  0  0  0  0  0  0
   -3.6725   -1.6389   -2.5232 H   0  0  0  0  0  0  0  0  0  0  0  0
   -5.1248   -0.3093   -1.0059 H   0  0  0  0  0  0  0  0  0  0  0  0
   -4.3365    0.2127    1.2929 H   0  0  0  0  0  0  0  0  0  0  0  0
   -2.1080   -0.5704    2.0362 H   0  0  0  0  0  0  0  0  0  0  0  0
    1.0588   -0.1134   -0.5606 H   0  0  0  0  0  0  0  0  0  0  0  0
    4.8911    1.5661   -0.1495 H   0  0  0  0  0  0  0  0  0  0  0  0
    5.8428   -0.6782    0.3545 H   0  0  0  0  0  0  0  0  0  0  0  0
  1 16  1  0  0  0  0
  2  1  1  0  0  0  0
  3  2  2  0  0  0  0
  3 17  1  0  0  0  0
  4  3  1  0  0  0  0
  5  4  2  0  0  0  0
  6  5  1  0  0  0  0
  6 18  1  0  0  0  0
  7  6  2  0  0  0  0
  7 19  1  0  0  0  0
  8  7  1  0  0  0  0
  8 20  1  0  0  0  0
  9  8  2  0  0  0  0
  9  4  1  0  0  0  0
  9 21  1  0  0  0  0
 10  1  1  0  0  0  0
 11 10  2  0  0  0  0
 11 22  1  0  0  0  0
 12 11  1  0  0  0  0
 13 12  2  0  0  0  0
 13 23  1  0  0  0  0
 14 13  1  0  0  0  0
 14 24  1  0  0  0  0
 15 14  2  0  0  0  0
 15 10  1  0  0  0  0
M  END
>  <MOL Chiral Flag>
0

>  <energy>
122.17671641364689

$$$$
