>259.sdf
 OpenBabel10062211583D

 57 61  0  0  0  0  0  0  0  0999 V2000
    2.8368   -2.2588   -3.0996 F   0  0  0  0  0  0  0  0  0  0  0  0
    3.3823   -1.7777   -1.9552 C   0  0  0  0  0  0  0  0  0  0  0  0
    4.5773   -2.3368   -1.4657 C   0  0  0  0  0  0  0  0  0  0  0  0
    5.1383   -1.8647   -0.2739 C   0  0  0  0  0  0  0  0  0  0  0  0
    4.4901   -0.8324    0.3943 C   0  0  0  0  0  0  0  0  0  0  0  0
    4.8986   -0.1179    1.8200 S   0  0  0  0  0  0  0  0  0  0  0  0
    3.6413    0.9589    1.9495 C   0  0  0  0  0  0  0  0  0  0  0  0
    2.8233    0.8056    0.8068 C   0  0  0  0  0  0  0  0  0  0  0  0
    3.3127   -0.2389   -0.0719 C   0  0  0  0  0  0  0  0  0  0  0  0
    2.7417   -0.7329   -1.2616 C   0  0  0  0  0  0  0  0  0  0  0  0
    1.6030    1.6576    0.6116 C   0  0  0  0  0  0  0  0  0  0  0  0
    0.9026    2.1486    1.7351 C   0  0  0  0  0  0  0  0  0  0  0  0
   -0.2525    2.9248    1.5807 C   0  0  0  0  0  0  0  0  0  0  0  0
   -0.7273    3.2416    0.3016 C   0  0  0  0  0  0  0  0  0  0  0  0
   -1.9943    4.0593    0.1207 C   0  0  0  0  0  0  0  0  0  0  0  0
   -3.0178    3.2667   -0.5873 N   0  3  0  0  0  0  0  0  0  0  0  0
   -4.1619    4.0618   -1.0649 C   0  0  0  0  0  0  0  0  0  0  0  0
   -5.2244    4.3954    0.0114 C   0  0  0  0  0  0  0  0  0  0  0  0
   -6.3745    5.1523   -0.6916 C   0  0  0  0  0  0  0  0  0  0  0  0
   -7.6649    5.3945   -0.0425 N   0  0  0  0  0  0  0  0  0  0  0  0
   -8.1484    5.0667    1.2780 C   0  0  0  0  0  0  0  0  0  0  0  0
   -7.2778    4.8749    2.3675 C   0  0  0  0  0  0  0  0  0  0  0  0
   -7.7823    4.6095    3.6408 C   0  0  0  0  0  0  0  0  0  0  0  0
   -9.1181    4.5316    3.8507 N   0  0  0  0  0  0  0  0  0  0  0  0
  -10.0104    4.7018    2.8462 C   0  0  0  0  0  0  0  0  0  0  0  0
  -11.3811    4.6036    3.1255 C   0  0  0  0  0  0  0  0  0  0  0  0
  -12.3222    4.7621    2.1092 C   0  0  0  0  0  0  0  0  0  0  0  0
  -14.0356    4.6321    2.4660 Cl  0  0  0  0  0  0  0  0  0  0  0  0
  -11.9019    5.0167    0.8058 C   0  0  0  0  0  0  0  0  0  0  0  0
  -10.5407    5.1227    0.5082 C   0  0  0  0  0  0  0  0  0  0  0  0
   -9.5616    4.9743    1.5253 C   0  0  0  0  0  0  0  0  0  0  0  0
   -0.0098    2.7932   -0.8205 C   0  0  0  0  0  0  0  0  0  0  0  0
    1.1383    2.0110   -0.6689 C   0  0  0  0  0  0  0  0  0  0  0  0
    5.0575   -3.1439   -2.0043 H   0  0  0  0  0  0  0  0  0  0  0  0
    6.0475   -2.3000    0.1206 H   0  0  0  0  0  0  0  0  0  0  0  0
    3.5079    1.6657    2.7564 H   0  0  0  0  0  0  0  0  0  0  0  0
    1.8138   -0.3594   -1.6542 H   0  0  0  0  0  0  0  0  0  0  0  0
    1.2303    1.9088    2.7372 H   0  0  0  0  0  0  0  0  0  0  0  0
   -0.7812    3.2687    2.4605 H   0  0  0  0  0  0  0  0  0  0  0  0
   -1.7268    4.9682   -0.4636 H   0  0  0  0  0  0  0  0  0  0  0  0
   -2.3986    4.3899    1.1026 H   0  0  0  0  0  0  0  0  0  0  0  0
   -3.3426    2.4674    0.0054 H   0  0  0  0  0  0  0  0  0  0  0  0
   -2.5813    2.8659   -1.4493 H   0  0  0  0  0  0  0  0  0  0  0  0
   -4.6764    3.4563   -1.8460 H   0  0  0  0  0  0  0  0  0  0  0  0
   -3.8027    4.9909   -1.5631 H   0  0  0  0  0  0  0  0  0  0  0  0
   -4.7508    5.0271    0.7889 H   0  0  0  0  0  0  0  0  0  0  0  0
   -5.6028    3.4433    0.4426 H   0  0  0  0  0  0  0  0  0  0  0  0
   -6.6346    4.5500   -1.5903 H   0  0  0  0  0  0  0  0  0  0  0  0
   -5.9758    6.1247   -1.0531 H   0  0  0  0  0  0  0  0  0  0  0  0
   -8.3354    5.8329   -0.6807 H   0  0  0  0  0  0  0  0  0  0  0  0
   -6.2185    4.9577    2.2744 H   0  0  0  0  0  0  0  0  0  0  0  0
   -7.1048    4.4784    4.4735 H   0  0  0  0  0  0  0  0  0  0  0  0
  -11.7144    4.4000    4.1362 H   0  0  0  0  0  0  0  0  0  0  0  0
  -12.6329    5.1309    0.0147 H   0  0  0  0  0  0  0  0  0  0  0  0
  -10.2911    5.3068   -0.5217 H   0  0  0  0  0  0  0  0  0  0  0  0
   -0.3387    3.0506   -1.8196 H   0  0  0  0  0  0  0  0  0  0  0  0
    1.6688    1.7174   -1.5586 H   0  0  0  0  0  0  0  0  0  0  0  0
  2  1  1  0  0  0  0
  3  2  2  0  0  0  0
  3 34  1  0  0  0  0
  4  3  1  0  0  0  0
  4 35  1  0  0  0  0
  5  4  2  0  0  0  0
  6  5  1  0  0  0  0
  7  6  1  0  0  0  0
  7 36  1  0  0  0  0
  8  7  2  0  0  0  0
  9  8  1  0  0  0  0
  9  5  1  0  0  0  0
 10  9  2  0  0  0  0
 10  2  1  0  0  0  0
 10 37  1  0  0  0  0
 11  8  1  0  0  0  0
 12 11  2  0  0  0  0
 12 38  1  0  0  0  0
 13 12  1  0  0  0  0
 13 39  1  0  0  0  0
 14 13  2  0  0  0  0
 15 14  1  0  0  0  0
 15 40  1  0  0  0  0
 15 41  1  0  0  0  0
 16 15  1  0  0  0  0
 16 42  1  0  0  0  0
 16 43  1  0  0  0  0
 17 16  1  0  0  0  0
 17 44  1  0  0  0  0
 17 45  1  0  0  0  0
 18 17  1  0  0  0  0
 18 46  1  0  0  0  0
 18 47  1  0  0  0  0
 19 18  1  0  0  0  0
 19 48  1  0  0  0  0
 19 49  1  0  0  0  0
 20 19  1  0  0  0  0
 20 50  1  0  0  0  0
 21 20  1  0  0  0  0
 22 21  2  0  0  0  0
 22 51  1  0  0  0  0
 23 22  1  0  0  0  0
 23 52  1  0  0  0  0
 24 23  2  0  0  0  0
 25 24  1  0  0  0  0
 26 25  2  0  0  0  0
 26 53  1  0  0  0  0
 27 26  1  0  0  0  0
 28 27  1  0  0  0  0
 29 27  2  0  0  0  0
 29 54  1  0  0  0  0
 30 29  1  0  0  0  0
 30 55  1  0  0  0  0
 31 30  2  0  0  0  0
 31 21  1  0  0  0  0
 31 25  1  0  0  0  0
 32 14  1  0  0  0  0
 32 56  1  0  0  0  0
 33 32  2  0  0  0  0
 33 11  1  0  0  0  0
 33 57  1  0  0  0  0
M  CHG  1  16   1
M  END
>  <MOL Chiral Flag>
0

>  <energy>
71.536276781493655

$$$$
