>261.sdf
 OpenBabel10062211593D

 34 36  0  0  0  0  0  0  0  0999 V2000
    3.2942    1.2516    2.2966 C   0  0  0  0  0  0  0  0  0  0  0  0
    2.2846    1.4815    1.3909 O   0  0  0  0  0  0  0  0  0  0  0  0
    2.1976    0.7945    0.2313 C   0  0  0  0  0  0  0  0  0  0  0  0
    1.0721    0.0031    0.0007 C   0  0  0  0  0  0  0  0  0  0  0  0
    0.0881   -0.0564    0.9243 O   0  0  0  0  0  0  0  0  0  0  0  0
   -1.1526    0.3895    0.6265 C   0  0  0  0  0  0  0  0  0  0  0  0
   -1.3369    1.7183    0.2209 C   0  0  0  0  0  0  0  0  0  0  0  0
   -2.6129    2.1710   -0.1095 C   0  0  0  0  0  0  0  0  0  0  0  0
   -3.6734    1.3212   -0.0547 N   0  0  0  0  0  0  0  0  0  0  0  0
   -3.5302    0.0254    0.3295 C   0  0  0  0  0  0  0  0  0  0  0  0
   -4.6409   -0.8249    0.3485 C   0  0  0  0  0  0  0  0  0  0  0  0
   -4.4954   -2.1618    0.7318 C   0  0  0  0  0  0  0  0  0  0  0  0
   -5.8889   -3.2262    0.7378 Cl  0  0  0  0  0  0  0  0  0  0  0  0
   -3.2391   -2.6538    1.1047 C   0  0  0  0  0  0  0  0  0  0  0  0
   -2.1217   -1.8143    1.0869 C   0  0  0  0  0  0  0  0  0  0  0  0
   -2.2578   -0.4728    0.6955 C   0  0  0  0  0  0  0  0  0  0  0  0
    0.9638   -0.7367   -1.1835 C   0  0  0  0  0  0  0  0  0  0  0  0
    1.9695   -0.6735   -2.1471 C   0  0  0  0  0  0  0  0  0  0  0  0
    3.0926    0.1458   -1.9429 C   0  0  0  0  0  0  0  0  0  0  0  0
    4.1487    0.2477   -2.9724 C   0  0  0  0  0  0  0  0  0  0  0  0
    4.0783   -0.3965   -4.0078 O   0  0  0  0  0  0  0  0  0  0  0  0
    3.2060    0.8766   -0.7466 C   0  0  0  0  0  0  0  0  0  0  0  0
    4.2915    1.4129    1.8394 H   0  0  0  0  0  0  0  0  0  0  0  0
    3.1685    1.9332    3.1619 H   0  0  0  0  0  0  0  0  0  0  0  0
    3.2158    0.2041    2.6624 H   0  0  0  0  0  0  0  0  0  0  0  0
   -0.4936    2.3971    0.1676 H   0  0  0  0  0  0  0  0  0  0  0  0
   -2.7586    3.1971   -0.4176 H   0  0  0  0  0  0  0  0  0  0  0  0
   -5.6134   -0.4477    0.0568 H   0  0  0  0  0  0  0  0  0  0  0  0
   -3.1270   -3.6886    1.4011 H   0  0  0  0  0  0  0  0  0  0  0  0
   -1.1557   -2.2159    1.3699 H   0  0  0  0  0  0  0  0  0  0  0  0
    0.0994   -1.3674   -1.3499 H   0  0  0  0  0  0  0  0  0  0  0  0
    1.8661   -1.2565   -3.0536 H   0  0  0  0  0  0  0  0  0  0  0  0
    4.9949    0.9087   -2.8177 H   0  0  0  0  0  0  0  0  0  0  0  0
    4.0663    1.5138   -0.5819 H   0  0  0  0  0  0  0  0  0  0  0  0
  1 23  1  0  0  0  0
  1 24  1  0  0  0  0
  1 25  1  0  0  0  0
  2  1  1  0  0  0  0
  3  2  1  0  0  0  0
  4  3  2  0  0  0  0
  5  4  1  0  0  0  0
  6  5  1  0  0  0  0
  7  6  2  0  0  0  0
  7 26  1  0  0  0  0
  8  7  1  0  0  0  0
  8 27  1  0  0  0  0
  9  8  2  0  0  0  0
 10  9  1  0  0  0  0
 11 10  2  0  0  0  0
 11 28  1  0  0  0  0
 12 11  1  0  0  0  0
 13 12  1  0  0  0  0
 14 12  2  0  0  0  0
 14 29  1  0  0  0  0
 15 14  1  0  0  0  0
 15 30  1  0  0  0  0
 16 15  2  0  0  0  0
 16  6  1  0  0  0  0
 16 10  1  0  0  0  0
 17  4  1  0  0  0  0
 17 31  1  0  0  0  0
 18 17  2  0  0  0  0
 18 32  1  0  0  0  0
 19 18  1  0  0  0  0
 20 19  1  0  0  0  0
 20 33  1  0  0  0  0
 21 20  2  0  0  0  0
 22 19  2  0  0  0  0
 22  3  1  0  0  0  0
 22 34  1  0  0  0  0
M  END
>  <MOL Chiral Flag>
0

>  <energy>
71.451003887620729

$$$$
