>262.sdf
 OpenBabel10062211593D

 41 43  0  0  0  0  0  0  0  0999 V2000
    2.4031   -0.5061    2.9496 C   0  0  0  0  0  0  0  0  0  0  0  0
    1.2200   -0.5597    2.2542 O   0  0  0  0  0  0  0  0  0  0  0  0
    0.9931   -0.3127    0.9340 C   0  0  0  0  0  0  0  0  0  0  0  0
   -0.2882   -0.6496    0.4602 C   0  0  0  0  0  0  0  0  0  0  0  0
   -1.2138   -1.1600    1.3289 O   0  0  0  0  0  0  0  0  0  0  0  0
   -2.5559   -1.3144    1.1093 C   0  0  0  0  0  0  0  0  0  0  0  0
   -3.1300   -2.5510    1.4293 C   0  0  0  0  0  0  0  0  0  0  0  0
   -4.4858   -2.7815    1.1944 C   0  0  0  0  0  0  0  0  0  0  0  0
   -5.2619   -1.8106    0.6519 N   0  0  0  0  0  0  0  0  0  0  0  0
   -4.7640   -0.5851    0.3426 C   0  0  0  0  0  0  0  0  0  0  0  0
   -5.6134    0.3827   -0.2077 C   0  0  0  0  0  0  0  0  0  0  0  0
   -5.1244    1.6528   -0.5187 C   0  0  0  0  0  0  0  0  0  0  0  0
   -6.1910    2.8581   -1.2167 Cl  0  0  0  0  0  0  0  0  0  0  0  0
   -3.7888    1.9677   -0.2646 C   0  0  0  0  0  0  0  0  0  0  0  0
   -2.9300    1.0132    0.2862 C   0  0  0  0  0  0  0  0  0  0  0  0
   -3.3955   -0.2881    0.5784 C   0  0  0  0  0  0  0  0  0  0  0  0
   -0.5873   -0.4836   -0.8876 C   0  0  0  0  0  0  0  0  0  0  0  0
    0.3338    0.0605   -1.7509 C   0  0  0  0  0  0  0  0  0  0  0  0
    1.6220    0.4571   -1.3409 C   0  0  0  0  0  0  0  0  0  0  0  0
    2.4315    1.0323   -2.4889 C   0  0  0  0  0  0  0  0  0  0  0  0
    3.6164    1.5251   -2.6388 N   0  0  0  0  0  0  0  0  0  0  0  0
    4.6499    1.7675   -1.7594 N   0  0  0  0  0  0  0  0  0  0  0  0
    5.8837    2.2674   -2.3181 C   0  0  0  0  0  0  0  0  0  0  0  0
    6.9482    2.6918   -1.4794 N   0  0  0  0  0  0  0  0  0  0  0  0
    6.0514    2.3692   -3.7517 S   0  0  0  0  0  0  0  0  0  0  0  0
    1.9702    0.2524    0.0327 C   0  0  0  0  0  0  0  0  0  0  0  0
    2.1890   -0.8062    4.0010 H   0  0  0  0  0  0  0  0  0  0  0  0
    2.8109    0.5224    2.9559 H   0  0  0  0  0  0  0  0  0  0  0  0
    3.1261   -1.2366    2.5329 H   0  0  0  0  0  0  0  0  0  0  0  0
   -2.5199   -3.3417    1.8469 H   0  0  0  0  0  0  0  0  0  0  0  0
   -4.9218   -3.7421    1.4355 H   0  0  0  0  0  0  0  0  0  0  0  0
   -6.6544    0.1471   -0.3945 H   0  0  0  0  0  0  0  0  0  0  0  0
   -3.4123    2.9562   -0.4950 H   0  0  0  0  0  0  0  0  0  0  0  0
   -1.9106    1.3061    0.4784 H   0  0  0  0  0  0  0  0  0  0  0  0
   -1.5518   -0.7673   -1.2834 H   0  0  0  0  0  0  0  0  0  0  0  0
    0.0217    0.1779   -2.7810 H   0  0  0  0  0  0  0  0  0  0  0  0
    1.8839    1.0242   -3.4247 H   0  0  0  0  0  0  0  0  0  0  0  0
    4.5293    1.6701   -0.7452 H   0  0  0  0  0  0  0  0  0  0  0  0
    7.8212    3.0627   -1.8947 H   0  0  0  0  0  0  0  0  0  0  0  0
    6.8569    2.6660   -0.4583 H   0  0  0  0  0  0  0  0  0  0  0  0
    2.9501    0.5187    0.4004 H   0  0  0  0  0  0  0  0  0  0  0  0
  1 27  1  0  0  0  0
  1 28  1  0  0  0  0
  1 29  1  0  0  0  0
  2  1  1  0  0  0  0
  3  2  1  0  0  0  0
  4  3  2  0  0  0  0
  5  4  1  0  0  0  0
  6  5  1  0  0  0  0
  7  6  2  0  0  0  0
  7 30  1  0  0  0  0
  8  7  1  0  0  0  0
  8 31  1  0  0  0  0
  9  8  2  0  0  0  0
 10  9  1  0  0  0  0
 11 10  2  0  0  0  0
 11 32  1  0  0  0  0
 12 11  1  0  0  0  0
 13 12  1  0  0  0  0
 14 12  2  0  0  0  0
 14 33  1  0  0  0  0
 15 14  1  0  0  0  0
 15 34  1  0  0  0  0
 16 15  2  0  0  0  0
 16  6  1  0  0  0  0
 16 10  1  0  0  0  0
 17  4  1  0  0  0  0
 17 35  1  0  0  0  0
 18 17  2  0  0  0  0
 18 36  1  0  0  0  0
 19 18  1  0  0  0  0
 20 19  1  0  0  0  0
 20 37  1  0  0  0  0
 21 20  2  0  0  0  0
 22 21  1  0  0  0  0
 22 38  1  0  0  0  0
 23 22  1  0  0  0  0
 24 23  1  0  0  0  0
 24 39  1  0  0  0  0
 24 40  1  0  0  0  0
 25 23  2  0  0  0  0
 26 19  2  0  0  0  0
 26  3  1  0  0  0  0
 26 41  1  0  0  0  0
M  END
>  <MOL Chiral Flag>
0

>  <energy>
60.712669496908951

$$$$
