>268.sdf
 OpenBabel10062212023D

 39 40  0  0  0  0  0  0  0  0999 V2000
    5.2208   -0.8318    6.4249 C   0  0  0  0  0  0  0  0  0  0  0  0
    5.0376   -1.8945    5.5679 O   0  0  0  0  0  0  0  0  0  0  0  0
    3.9720   -2.0458    4.7414 C   0  0  0  0  0  0  0  0  0  0  0  0
    4.1786   -2.7261    3.5555 C   0  0  0  0  0  0  0  0  0  0  0  0
    3.1764   -2.8307    2.5931 C   0  0  0  0  0  0  0  0  0  0  0  0
    3.5079   -3.4175    1.4228 O   0  0  0  0  0  0  0  0  0  0  0  0
    3.9593   -2.6646    0.3544 C   0  0  0  0  0  0  0  0  0  0  0  0
    1.8805   -2.2772    2.8192 C   0  0  0  0  0  0  0  0  0  0  0  0
    0.8165   -2.4119    1.7326 C   0  0  0  0  0  0  0  0  0  0  0  0
    1.0285   -3.1833    0.8080 O   0  0  0  0  0  0  0  0  0  0  0  0
   -0.4651   -1.6288    1.6928 C   0  0  0  0  0  0  0  0  0  0  0  0
   -1.3828   -1.8078    0.7068 C   0  0  0  0  0  0  0  0  0  0  0  0
   -2.6702   -1.0414    0.5900 C   0  0  0  0  0  0  0  0  0  0  0  0
   -3.5363   -1.3212   -0.4908 C   0  0  0  0  0  0  0  0  0  0  0  0
   -4.7613   -0.6293   -0.6385 C   0  0  0  0  0  0  0  0  0  0  0  0
   -5.1061    0.3528    0.3026 C   0  0  0  0  0  0  0  0  0  0  0  0
   -4.2558    0.6384    1.3679 C   0  0  0  0  0  0  0  0  0  0  0  0
   -3.0511   -0.0492    1.5182 C   0  0  0  0  0  0  0  0  0  0  0  0
   -5.6444   -0.9212   -1.7248 N   0  3  0  0  0  0  0  0  0  0  0  0
   -6.8220   -0.3331   -1.7986 O   0  5  0  0  0  0  0  0  0  0  0  0
   -5.3362   -1.7128   -2.5616 O   0  0  0  0  0  0  0  0  0  0  0  0
    1.6591   -1.6163    4.0682 C   0  0  0  0  0  0  0  0  0  0  0  0
    0.4562   -1.0962    4.3783 O   0  0  0  0  0  0  0  0  0  0  0  0
    2.7076   -1.4986    5.0077 C   0  0  0  0  0  0  0  0  0  0  0  0
    6.2936   -0.8012    6.7100 H   0  0  0  0  0  0  0  0  0  0  0  0
    5.0026    0.1169    5.8871 H   0  0  0  0  0  0  0  0  0  0  0  0
    4.5989   -0.9226    7.3375 H   0  0  0  0  0  0  0  0  0  0  0  0
    5.1599   -3.1380    3.3510 H   0  0  0  0  0  0  0  0  0  0  0  0
    5.0270   -2.8988    0.1631 H   0  0  0  0  0  0  0  0  0  0  0  0
    3.8721   -1.5703    0.5509 H   0  0  0  0  0  0  0  0  0  0  0  0
    3.3656   -2.9094   -0.5482 H   0  0  0  0  0  0  0  0  0  0  0  0
   -0.6510   -0.8905    2.4412 H   0  0  0  0  0  0  0  0  0  0  0  0
   -1.1825   -2.5512   -0.0610 H   0  0  0  0  0  0  0  0  0  0  0  0
   -3.2614   -2.0806   -1.2131 H   0  0  0  0  0  0  0  0  0  0  0  0
   -6.0345    0.9030    0.2120 H   0  0  0  0  0  0  0  0  0  0  0  0
   -4.5330    1.3993    2.0857 H   0  0  0  0  0  0  0  0  0  0  0  0
   -2.4342    0.2081    2.3618 H   0  0  0  0  0  0  0  0  0  0  0  0
    0.2888   -0.6459    5.2187 H   0  0  0  0  0  0  0  0  0  0  0  0
    2.5310   -0.9777    5.9411 H   0  0  0  0  0  0  0  0  0  0  0  0
  1 25  1  0  0  0  0
  1 26  1  0  0  0  0
  1 27  1  0  0  0  0
  2  1  1  0  0  0  0
  3  2  1  0  0  0  0
  4  3  2  0  0  0  0
  4 28  1  0  0  0  0
  5  4  1  0  0  0  0
  6  5  1  0  0  0  0
  7  6  1  0  0  0  0
  7 29  1  0  0  0  0
  7 30  1  0  0  0  0
  7 31  1  0  0  0  0
  8  5  2  0  0  0  0
  9  8  1  0  0  0  0
 10  9  2  0  0  0  0
 11  9  1  0  0  0  0
 11 32  1  0  0  0  0
 12 11  2  0  0  0  0
 12 33  1  0  0  0  0
 13 12  1  0  0  0  0
 14 13  2  0  0  0  0
 14 34  1  0  0  0  0
 15 14  1  0  0  0  0
 16 15  2  0  0  0  0
 16 35  1  0  0  0  0
 17 16  1  0  0  0  0
 17 36  1  0  0  0  0
 18 17  2  0  0  0  0
 18 13  1  0  0  0  0
 18 37  1  0  0  0  0
 19 15  1  0  0  0  0
 20 19  1  0  0  0  0
 21 19  2  0  0  0  0
 22  8  1  0  0  0  0
 23 22  1  0  0  0  0
 23 38  1  0  0  0  0
 24 22  2  0  0  0  0
 24  3  1  0  0  0  0
 24 39  1  0  0  0  0
M  CHG  2  19   1  20  -1
M  END
>  <MOL Chiral Flag>
0

>  <energy>
115.53360103057138

$$$$
