>269.sdf
 OpenBabel10062212023D

 47 49  0  0  0  0  0  0  0  0999 V2000
   -6.1658    0.0116   -2.0050 C   0  0  0  0  0  0  0  0  0  0  0  0
   -5.0120    0.6454   -1.5877 O   0  0  0  0  0  0  0  0  0  0  0  0
   -3.9230    0.0240   -1.0599 C   0  0  0  0  0  0  0  0  0  0  0  0
   -2.7184    0.7435   -0.9143 C   0  0  0  0  0  0  0  0  0  0  0  0
   -1.5692    0.0963   -0.4236 C   0  0  0  0  0  0  0  0  0  0  0  0
   -1.6184   -1.2617   -0.0451 C   0  0  0  0  0  0  0  0  0  0  0  0
   -0.4456   -2.0083    0.4922 C   0  0  0  0  0  0  0  0  0  0  0  0
    0.8391   -1.5973    0.4271 C   0  0  0  0  0  0  0  0  0  0  0  0
    1.9252   -2.4223    1.0438 C   0  0  0  0  0  0  0  0  0  0  0  0
    1.6109   -3.3694    1.7505 O   0  0  0  0  0  0  0  0  0  0  0  0
    3.3797   -2.1195    0.8663 C   0  0  0  0  0  0  0  0  0  0  0  0
    3.8484   -1.2191   -0.1126 C   0  0  0  0  0  0  0  0  0  0  0  0
    5.2219   -0.9815   -0.2543 C   0  0  0  0  0  0  0  0  0  0  0  0
    6.1383   -1.6265    0.5794 C   0  0  0  0  0  0  0  0  0  0  0  0
    5.6879   -2.5173    1.5524 C   0  0  0  0  0  0  0  0  0  0  0  0
    4.3215   -2.7699    1.6929 C   0  0  0  0  0  0  0  0  0  0  0  0
   -2.8314   -1.9540   -0.1607 C   0  0  0  0  0  0  0  0  0  0  0  0
   -3.9655   -1.3283   -0.6712 C   0  0  0  0  0  0  0  0  0  0  0  0
   -2.6039    2.4817   -1.3998 S   0  0  0  0  0  0  0  0  0  0  0  0
   -3.8303    2.9346   -2.2072 O   0  0  0  0  0  0  0  0  0  0  0  0
   -1.4855    2.6655   -2.4288 O   0  0  0  0  0  0  0  0  0  0  0  0
   -2.4487    3.7238   -0.1392 N   0  0  0  0  0  0  0  0  0  0  0  0
   -1.9725    5.0632   -0.3491 C   0  0  0  0  0  0  0  0  0  0  0  0
   -2.4260    6.0865    0.5093 C   0  0  0  0  0  0  0  0  0  0  0  0
   -2.0089    7.4107    0.3282 C   0  0  0  0  0  0  0  0  0  0  0  0
   -1.1210    7.7311   -0.6981 C   0  0  0  0  0  0  0  0  0  0  0  0
   -0.6455    6.7299   -1.5422 C   0  0  0  0  0  0  0  0  0  0  0  0
   -1.0655    5.4071   -1.3764 C   0  0  0  0  0  0  0  0  0  0  0  0
   -5.9235   -0.7138   -2.8123 H   0  0  0  0  0  0  0  0  0  0  0  0
   -6.6638   -0.5078   -1.1598 H   0  0  0  0  0  0  0  0  0  0  0  0
   -6.8660    0.7673   -2.4152 H   0  0  0  0  0  0  0  0  0  0  0  0
   -0.6534    0.6625   -0.3328 H   0  0  0  0  0  0  0  0  0  0  0  0
   -0.6548   -2.9695    0.9537 H   0  0  0  0  0  0  0  0  0  0  0  0
    1.0871   -0.6697   -0.0686 H   0  0  0  0  0  0  0  0  0  0  0  0
    3.1687   -0.7126   -0.7813 H   0  0  0  0  0  0  0  0  0  0  0  0
    5.5774   -0.2977   -1.0141 H   0  0  0  0  0  0  0  0  0  0  0  0
    7.1988   -1.4381    0.4697 H   0  0  0  0  0  0  0  0  0  0  0  0
    6.3979   -3.0166    2.1998 H   0  0  0  0  0  0  0  0  0  0  0  0
    3.9978   -3.4669    2.4555 H   0  0  0  0  0  0  0  0  0  0  0  0
   -2.8944   -2.9966    0.1277 H   0  0  0  0  0  0  0  0  0  0  0  0
   -4.8733   -1.9082   -0.7628 H   0  0  0  0  0  0  0  0  0  0  0  0
   -3.0044    3.5505    0.7123 H   0  0  0  0  0  0  0  0  0  0  0  0
   -3.1203    5.8608    1.3090 H   0  0  0  0  0  0  0  0  0  0  0  0
   -2.3766    8.1906    0.9830 H   0  0  0  0  0  0  0  0  0  0  0  0
   -0.7969    8.7546   -0.8381 H   0  0  0  0  0  0  0  0  0  0  0  0
    0.0535    6.9770   -2.3312 H   0  0  0  0  0  0  0  0  0  0  0  0
   -0.6524    4.6844   -2.0442 H   0  0  0  0  0  0  0  0  0  0  0  0
  1 29  1  0  0  0  0
  1 30  1  0  0  0  0
  1 31  1  0  0  0  0
  2  1  1  0  0  0  0
  3  2  1  0  0  0  0
  4  3  2  0  0  0  0
  5  4  1  0  0  0  0
  5 32  1  0  0  0  0
  6  5  2  0  0  0  0
  7  6  1  0  0  0  0
  7 33  1  0  0  0  0
  8  7  2  0  0  0  0
  8 34  1  0  0  0  0
  9  8  1  0  0  0  0
 10  9  2  0  0  0  0
 11  9  1  0  0  0  0
 12 11  2  0  0  0  0
 12 35  1  0  0  0  0
 13 12  1  0  0  0  0
 13 36  1  0  0  0  0
 14 13  2  0  0  0  0
 14 37  1  0  0  0  0
 15 14  1  0  0  0  0
 15 38  1  0  0  0  0
 16 15  2  0  0  0  0
 16 11  1  0  0  0  0
 16 39  1  0  0  0  0
 17  6  1  0  0  0  0
 17 40  1  0  0  0  0
 18 17  2  0  0  0  0
 18  3  1  0  0  0  0
 18 41  1  0  0  0  0
 19  4  1  0  0  0  0
 20 19  2  0  0  0  0
 21 19  2  0  0  0  0
 22 19  1  0  0  0  0
 22 42  1  0  0  0  0
 23 22  1  0  0  0  0
 24 23  2  0  0  0  0
 24 43  1  0  0  0  0
 25 24  1  0  0  0  0
 25 44  1  0  0  0  0
 26 25  2  0  0  0  0
 26 45  1  0  0  0  0
 27 26  1  0  0  0  0
 27 46  1  0  0  0  0
 28 27  2  0  0  0  0
 28 23  1  0  0  0  0
 28 47  1  0  0  0  0
M  END
>  <MOL Chiral Flag>
0

>  <energy>
49.772845906169287

$$$$
