>274.sdf
 OpenBabel10062212063D

 53 55  0  0  0  0  0  0  0  0999 V2000
   -6.6987    3.3479   -0.2143 C   0  0  0  0  0  0  0  0  0  0  0  0
   -5.2646    2.8860   -0.2098 C   0  0  0  0  0  0  0  0  0  0  0  0
   -4.2359    3.9206    0.2088 C   0  0  0  0  0  0  0  0  0  0  0  0
   -4.9808    1.6004   -0.5642 C   0  0  0  0  0  0  0  0  0  0  0  0
   -3.6028    0.9767   -0.5921 C   0  0  0  0  0  0  0  0  0  0  0  0
   -3.5365   -0.2131    0.3843 C   0  0  0  0  0  0  0  0  0  0  0  0
   -2.0985   -0.7336    0.6359 C   0  0  2  0  0  0  0  0  0  0  0  0
   -1.2762    0.3315    1.4148 C   0  0  0  0  0  0  0  0  0  0  0  0
   -1.4427   -1.0124   -0.5608 O   0  0  0  0  0  0  0  0  0  0  0  0
   -0.2468   -1.6588   -0.5477 C   0  0  0  0  0  0  0  0  0  0  0  0
    0.0311   -2.5568    0.4914 C   0  0  0  0  0  0  0  0  0  0  0  0
   -1.0508   -2.8033    1.4830 C   0  0  0  0  0  0  0  0  0  0  0  0
   -2.1159   -1.9811    1.5078 C   0  0  0  0  0  0  0  0  0  0  0  0
    1.2791   -3.2019    0.5706 C   0  0  0  0  0  0  0  0  0  0  0  0
    1.4647   -4.0544    1.6084 O   0  0  0  0  0  0  0  0  0  0  0  0
    2.2892   -2.9135   -0.4165 C   0  0  0  0  0  0  0  0  0  0  0  0
    1.9456   -2.0298   -1.4738 C   0  0  0  0  0  0  0  0  0  0  0  0
    0.6925   -1.4230   -1.5379 C   0  0  0  0  0  0  0  0  0  0  0  0
    3.7040   -3.4551   -0.3299 C   0  0  0  0  0  0  0  0  0  0  0  0
    4.0524   -4.0727    0.6621 O   0  0  0  0  0  0  0  0  0  0  0  0
    4.7491   -3.1712   -1.3657 C   0  0  0  0  0  0  0  0  0  0  0  0
    6.0544   -3.4112   -1.1130 C   0  0  0  0  0  0  0  0  0  0  0  0
    7.1695   -3.1227   -2.0598 C   0  0  0  0  0  0  0  0  0  0  0  0
    8.4877   -3.2412   -1.5915 C   0  0  0  0  0  0  0  0  0  0  0  0
    9.5622   -2.9689   -2.4370 C   0  0  0  0  0  0  0  0  0  0  0  0
    9.3166   -2.5857   -3.7540 C   0  0  0  0  0  0  0  0  0  0  0  0
    8.0391   -2.4773   -4.2046 N   0  0  0  0  0  0  0  0  0  0  0  0
    6.9706   -2.7301   -3.4003 C   0  0  0  0  0  0  0  0  0  0  0  0
   -6.9780    3.6844    0.8068 H   0  0  0  0  0  0  0  0  0  0  0  0
   -6.8100    4.2019   -0.9149 H   0  0  0  0  0  0  0  0  0  0  0  0
   -7.4064    2.5491   -0.5209 H   0  0  0  0  0  0  0  0  0  0  0  0
   -4.4741    4.2717    1.2344 H   0  0  0  0  0  0  0  0  0  0  0  0
   -4.2970    4.7878   -0.4814 H   0  0  0  0  0  0  0  0  0  0  0  0
   -3.1808    3.6101    0.2257 H   0  0  0  0  0  0  0  0  0  0  0  0
   -5.8039    0.9473   -0.8424 H   0  0  0  0  0  0  0  0  0  0  0  0
   -3.3698    0.6255   -1.6200 H   0  0  0  0  0  0  0  0  0  0  0  0
   -2.8335    1.7033   -0.3391 H   0  0  0  0  0  0  0  0  0  0  0  0
   -3.9595    0.0904    1.3688 H   0  0  0  0  0  0  0  0  0  0  0  0
   -4.1781   -1.0266   -0.0222 H   0  0  0  0  0  0  0  0  0  0  0  0
   -1.7798    0.5925    2.3703 H   0  0  0  0  0  0  0  0  0  0  0  0
   -1.1186    1.2574    0.8305 H   0  0  0  0  0  0  0  0  0  0  0  0
   -0.2610   -0.0439    1.6642 H   0  0  0  0  0  0  0  0  0  0  0  0
   -0.9980   -3.6412    2.1714 H   0  0  0  0  0  0  0  0  0  0  0  0
   -2.9240   -2.1563    2.2125 H   0  0  0  0  0  0  0  0  0  0  0  0
    2.2254   -4.6176    1.7666 H   0  0  0  0  0  0  0  0  0  0  0  0
    2.6435   -1.7657   -2.2469 H   0  0  0  0  0  0  0  0  0  0  0  0
    0.4674   -0.7340   -2.3426 H   0  0  0  0  0  0  0  0  0  0  0  0
    4.4689   -2.7402   -2.3091 H   0  0  0  0  0  0  0  0  0  0  0  0
    6.3305   -3.8073   -0.1394 H   0  0  0  0  0  0  0  0  0  0  0  0
    8.6826   -3.5344   -0.5668 H   0  0  0  0  0  0  0  0  0  0  0  0
   10.5779   -3.0528   -2.0724 H   0  0  0  0  0  0  0  0  0  0  0  0
   10.1429   -2.3733   -4.4191 H   0  0  0  0  0  0  0  0  0  0  0  0
    5.9819   -2.6316   -3.8186 H   0  0  0  0  0  0  0  0  0  0  0  0
  1 29  1  0  0  0  0
  1 30  1  0  0  0  0
  1 31  1  0  0  0  0
  2  1  1  0  0  0  0
  3  2  1  0  0  0  0
  3 32  1  0  0  0  0
  3 33  1  0  0  0  0
  3 34  1  0  0  0  0
  4  2  2  0  0  0  0
  4 35  1  0  0  0  0
  5  4  1  0  0  0  0
  5 36  1  0  0  0  0
  5 37  1  0  0  0  0
  6  5  1  0  0  0  0
  6 38  1  0  0  0  0
  6 39  1  0  0  0  0
  7  6  1  6  0  0  0
  8  7  1  0  0  0  0
  8 40  1  0  0  0  0
  8 41  1  0  0  0  0
  8 42  1  0  0  0  0
  9  7  1  0  0  0  0
 10  9  1  0  0  0  0
 11 10  2  0  0  0  0
 12 11  1  0  0  0  0
 12 43  1  0  0  0  0
 13 12  2  0  0  0  0
 13  7  1  0  0  0  0
 13 44  1  0  0  0  0
 14 11  1  0  0  0  0
 15 14  1  0  0  0  0
 15 45  1  0  0  0  0
 16 14  2  0  0  0  0
 17 16  1  0  0  0  0
 17 46  1  0  0  0  0
 18 17  2  0  0  0  0
 18 10  1  0  0  0  0
 18 47  1  0  0  0  0
 19 16  1  0  0  0  0
 20 19  2  0  0  0  0
 21 19  1  0  0  0  0
 21 48  1  0  0  0  0
 22 21  2  0  0  0  0
 22 49  1  0  0  0  0
 23 22  1  0  0  0  0
 24 23  2  0  0  0  0
 24 50  1  0  0  0  0
 25 24  1  0  0  0  0
 25 51  1  0  0  0  0
 26 25  2  0  0  0  0
 26 52  1  0  0  0  0
 27 26  1  0  0  0  0
 28 27  2  0  0  0  0
 28 23  1  0  0  0  0
 28 53  1  0  0  0  0
M  END
>  <MOL Chiral Flag>
0

>  <energy>
134.79972523501263

$$$$
