>276.sdf
 OpenBabel10062212073D

 41 42  0  0  0  0  0  0  0  0999 V2000
    6.1488   -3.8897    1.1564 C   0  0  0  0  0  0  0  0  0  0  0  0
    6.2551   -3.0331    0.0798 O   0  0  0  0  0  0  0  0  0  0  0  0
    5.2790   -2.1911   -0.3530 C   0  0  0  0  0  0  0  0  0  0  0  0
    5.5580   -1.3501   -1.4340 C   0  0  0  0  0  0  0  0  0  0  0  0
    4.5928   -0.4619   -1.9065 C   0  0  0  0  0  0  0  0  0  0  0  0
    3.3353   -0.3995   -1.3038 C   0  0  0  0  0  0  0  0  0  0  0  0
    3.0246   -1.2402   -0.2127 C   0  0  0  0  0  0  0  0  0  0  0  0
    1.6978   -1.2230    0.4741 C   0  0  0  0  0  0  0  0  0  0  0  0
    0.7222   -0.3284    0.2153 C   0  0  0  0  0  0  0  0  0  0  0  0
   -0.5875   -0.3660    0.9233 C   0  0  0  0  0  0  0  0  0  0  0  0
   -0.8812   -1.3664    1.5639 O   0  0  0  0  0  0  0  0  0  0  0  0
   -1.6102    0.7216    0.7682 C   0  0  0  0  0  0  0  0  0  0  0  0
   -1.2889    2.0864    0.5225 C   0  0  0  0  0  0  0  0  0  0  0  0
   -0.0212    2.5561    0.5074 O   0  0  0  0  0  0  0  0  0  0  0  0
   -2.3137    3.0183    0.3430 C   0  0  0  0  0  0  0  0  0  0  0  0
   -3.6699    2.6470    0.4204 C   0  0  0  0  0  0  0  0  0  0  0  0
   -4.6579    3.5673    0.2503 O   0  0  0  0  0  0  0  0  0  0  0  0
   -4.4747    4.9135    0.0045 C   0  0  0  0  0  0  0  0  0  0  0  0
   -3.9972    1.2947    0.6931 C   0  0  0  0  0  0  0  0  0  0  0  0
   -5.2770    0.8323    0.7916 O   0  0  0  0  0  0  0  0  0  0  0  0
   -6.4441    1.5523    0.6414 C   0  0  0  0  0  0  0  0  0  0  0  0
   -2.9680    0.3623    0.8680 C   0  0  0  0  0  0  0  0  0  0  0  0
    4.0047   -2.1362    0.2527 C   0  0  0  0  0  0  0  0  0  0  0  0
    5.3339   -4.6249    0.9865 H   0  0  0  0  0  0  0  0  0  0  0  0
    5.9596   -3.3138    2.0877 H   0  0  0  0  0  0  0  0  0  0  0  0
    7.1035   -4.4422    1.2735 H   0  0  0  0  0  0  0  0  0  0  0  0
    6.5305   -1.3844   -1.9088 H   0  0  0  0  0  0  0  0  0  0  0  0
    4.8206    0.1840   -2.7449 H   0  0  0  0  0  0  0  0  0  0  0  0
    2.6208    0.3006   -1.7055 H   0  0  0  0  0  0  0  0  0  0  0  0
    1.5242   -1.9710    1.2436 H   0  0  0  0  0  0  0  0  0  0  0  0
    0.8700    0.4346   -0.5318 H   0  0  0  0  0  0  0  0  0  0  0  0
    0.7404    2.0732    0.8455 H   0  0  0  0  0  0  0  0  0  0  0  0
   -2.0378    4.0481    0.1601 H   0  0  0  0  0  0  0  0  0  0  0  0
   -3.9221    5.0603   -0.9480 H   0  0  0  0  0  0  0  0  0  0  0  0
   -5.4663    5.4020   -0.0858 H   0  0  0  0  0  0  0  0  0  0  0  0
   -3.9255    5.3872    0.8461 H   0  0  0  0  0  0  0  0  0  0  0  0
   -7.3067    0.8687    0.7789 H   0  0  0  0  0  0  0  0  0  0  0  0
   -6.5059    1.9808   -0.3816 H   0  0  0  0  0  0  0  0  0  0  0  0
   -6.5110    2.3487    1.4125 H   0  0  0  0  0  0  0  0  0  0  0  0
   -3.2386   -0.6692    1.0613 H   0  0  0  0  0  0  0  0  0  0  0  0
    3.7727   -2.7810    1.0903 H   0  0  0  0  0  0  0  0  0  0  0  0
  1 24  1  0  0  0  0
  1 25  1  0  0  0  0
  1 26  1  0  0  0  0
  2  1  1  0  0  0  0
  3  2  1  0  0  0  0
  4  3  2  0  0  0  0
  4 27  1  0  0  0  0
  5  4  1  0  0  0  0
  5 28  1  0  0  0  0
  6  5  2  0  0  0  0
  6 29  1  0  0  0  0
  7  6  1  0  0  0  0
  8  7  1  0  0  0  0
  8 30  1  0  0  0  0
  9  8  2  0  0  0  0
  9 31  1  0  0  0  0
 10  9  1  0  0  0  0
 11 10  2  0  0  0  0
 12 10  1  0  0  0  0
 13 12  2  0  0  0  0
 14 13  1  0  0  0  0
 14 32  1  0  0  0  0
 15 13  1  0  0  0  0
 15 33  1  0  0  0  0
 16 15  2  0  0  0  0
 17 16  1  0  0  0  0
 18 17  1  0  0  0  0
 18 34  1  0  0  0  0
 18 35  1  0  0  0  0
 18 36  1  0  0  0  0
 19 16  1  0  0  0  0
 20 19  1  0  0  0  0
 21 20  1  0  0  0  0
 21 37  1  0  0  0  0
 21 38  1  0  0  0  0
 21 39  1  0  0  0  0
 22 19  2  0  0  0  0
 22 12  1  0  0  0  0
 22 40  1  0  0  0  0
 23  7  2  0  0  0  0
 23  3  1  0  0  0  0
 23 41  1  0  0  0  0
M  END
>  <MOL Chiral Flag>
0

>  <energy>
90.025803893403662

$$$$
