>277.sdf
 OpenBabel10062212083D

 42 44  0  0  0  0  0  0  0  0999 V2000
   -1.6652   -4.0665    1.3963 O   0  0  0  0  0  0  0  0  0  0  0  0
   -1.4704   -3.1840    0.5713 C   0  0  0  0  0  0  0  0  0  0  0  0
   -2.6441   -2.5974   -0.1453 C   0  0  0  0  0  0  0  0  0  0  0  0
   -3.9077   -2.9729    0.1183 C   0  0  0  0  0  0  0  0  0  0  0  0
   -5.0421   -2.3561   -0.5970 C   0  0  0  0  0  0  0  0  0  0  0  0
   -6.3803   -2.6274   -0.3767 C   0  0  0  0  0  0  0  0  0  0  0  0
   -7.0812   -1.8190   -1.2474 C   0  0  0  0  0  0  0  0  0  0  0  0
   -6.1255   -1.1067   -1.9471 C   0  0  0  0  0  0  0  0  0  0  0  0
   -4.9243   -1.4455   -1.5397 O   0  0  0  0  0  0  0  0  0  0  0  0
   -6.3761   -0.1432   -2.9564 N   0  0  0  0  0  0  0  0  0  0  0  0
   -7.4961    0.1272   -3.2677 O   0  0  0  0  0  0  0  0  0  0  0  0
   -5.4634    0.4045   -3.4970 O   0  0  0  0  0  0  0  0  0  0  0  0
   -0.0624   -2.7193    0.3230 C   0  0  0  0  0  0  0  0  0  0  0  0
    1.0057   -3.3232    1.0072 C   0  0  0  0  0  0  0  0  0  0  0  0
    2.3273   -2.9027    0.8038 C   0  0  0  0  0  0  0  0  0  0  0  0
    2.6338   -1.8489   -0.0983 C   0  0  0  0  0  0  0  0  0  0  0  0
    1.5421   -1.2517   -0.7769 C   0  0  0  0  0  0  0  0  0  0  0  0
    0.2310   -1.6788   -0.5720 C   0  0  0  0  0  0  0  0  0  0  0  0
    4.0003   -1.3706   -0.2989 N   0  0  0  0  0  0  0  0  0  0  0  0
    4.3585   -0.4296   -1.3646 C   0  0  0  0  0  0  0  0  0  0  0  0
    5.5169   -1.0089   -2.1879 C   0  0  0  0  0  0  0  0  0  0  0  0
    6.6553   -1.3349   -1.3160 N   0  3  0  0  0  0  0  0  0  0  0  0
    6.2597   -2.3172   -0.2931 C   0  0  0  0  0  0  0  0  0  0  0  0
    5.1163   -1.7585    0.5674 C   0  0  0  0  0  0  0  0  0  0  0  0
   -2.4945   -1.8391   -0.8985 H   0  0  0  0  0  0  0  0  0  0  0  0
   -4.1132   -3.7269    0.8728 H   0  0  0  0  0  0  0  0  0  0  0  0
   -6.7969   -3.3254    0.3372 H   0  0  0  0  0  0  0  0  0  0  0  0
   -8.1560   -1.7563   -1.3553 H   0  0  0  0  0  0  0  0  0  0  0  0
    0.8198   -4.1273    1.7092 H   0  0  0  0  0  0  0  0  0  0  0  0
    3.0808   -3.4245    1.3633 H   0  0  0  0  0  0  0  0  0  0  0  0
    1.6608   -0.4326   -1.4587 H   0  0  0  0  0  0  0  0  0  0  0  0
   -0.5406   -1.1672   -1.1192 H   0  0  0  0  0  0  0  0  0  0  0  0
    4.6916    0.5249   -0.9029 H   0  0  0  0  0  0  0  0  0  0  0  0
    3.5570   -0.1976   -2.0788 H   0  0  0  0  0  0  0  0  0  0  0  0
    5.8311   -0.2645   -2.9531 H   0  0  0  0  0  0  0  0  0  0  0  0
    5.1755   -1.9246   -2.7215 H   0  0  0  0  0  0  0  0  0  0  0  0
    7.0064   -0.4624   -0.8536 H   0  0  0  0  0  0  0  0  0  0  0  0
    7.4292   -1.7327   -1.8971 H   0  0  0  0  0  0  0  0  0  0  0  0
    7.1326   -2.5477    0.3568 H   0  0  0  0  0  0  0  0  0  0  0  0
    5.9358   -3.2639   -0.7813 H   0  0  0  0  0  0  0  0  0  0  0  0
    5.4890   -0.8502    1.0885 H   0  0  0  0  0  0  0  0  0  0  0  0
    4.8733   -2.4817    1.3573 H   0  0  0  0  0  0  0  0  0  0  0  0
  2  1  2  0  0  0  0
  3  2  1  0  0  0  0
  3 25  1  0  0  0  0
  4  3  2  0  0  0  0
  4 26  1  0  0  0  0
  5  4  1  0  0  0  0
  6  5  2  0  0  0  0
  6 27  1  0  0  0  0
  7  6  1  0  0  0  0
  7 28  1  0  0  0  0
  8  7  2  0  0  0  0
  9  8  1  0  0  0  0
  9  5  1  0  0  0  0
 10  8  1  0  0  0  0
 11 10  2  0  0  0  0
 12 10  2  0  0  0  0
 13  2  1  0  0  0  0
 14 13  2  0  0  0  0
 14 29  1  0  0  0  0
 15 14  1  0  0  0  0
 15 30  1  0  0  0  0
 16 15  2  0  0  0  0
 17 16  1  0  0  0  0
 17 31  1  0  0  0  0
 18 17  2  0  0  0  0
 18 13  1  0  0  0  0
 18 32  1  0  0  0  0
 19 16  1  0  0  0  0
 20 19  1  0  0  0  0
 20 33  1  0  0  0  0
 20 34  1  0  0  0  0
 21 20  1  0  0  0  0
 21 35  1  0  0  0  0
 21 36  1  0  0  0  0
 22 21  1  0  0  0  0
 22 37  1  0  0  0  0
 22 38  1  0  0  0  0
 23 22  1  0  0  0  0
 23 39  1  0  0  0  0
 23 40  1  0  0  0  0
 24 23  1  0  0  0  0
 24 19  1  0  0  0  0
 24 41  1  0  0  0  0
 24 42  1  0  0  0  0
M  CHG  1  22   1
M  END
>  <MOL Chiral Flag>
0

>  <energy>
165.80562611891094

$$$$
