>282.sdf
 OpenBabel10062212123D

 41 42  0  0  0  0  0  0  0  0999 V2000
    5.9570   -0.1641   -0.3840 C   0  0  0  0  0  0  0  0  0  0  0  0
    4.7436   -0.8022   -0.2088 O   0  0  0  0  0  0  0  0  0  0  0  0
    3.5176   -0.2253   -0.0611 C   0  0  0  0  0  0  0  0  0  0  0  0
    2.4273   -0.9343   -0.5370 C   0  0  0  0  0  0  0  0  0  0  0  0
    1.1177   -0.4379   -0.4479 C   0  0  0  0  0  0  0  0  0  0  0  0
    0.0926   -1.1425   -0.9951 O   0  0  0  0  0  0  0  0  0  0  0  0
    0.1861   -2.3490   -1.6610 C   0  0  0  0  0  0  0  0  0  0  0  0
    0.8718    0.8193    0.1818 C   0  0  0  0  0  0  0  0  0  0  0  0
   -0.5458    1.3843    0.2902 C   0  0  0  0  0  0  0  0  0  0  0  0
   -0.6937    2.5834    0.4598 O   0  0  0  0  0  0  0  0  0  0  0  0
   -1.7949    0.5572    0.1914 C   0  0  0  0  0  0  0  0  0  0  0  0
   -3.0181    1.1082    0.3527 C   0  0  0  0  0  0  0  0  0  0  0  0
   -4.2975    0.3440    0.2644 C   0  0  0  0  0  0  0  0  0  0  0  0
   -5.4799    0.9658    0.7045 C   0  0  0  0  0  0  0  0  0  0  0  0
   -6.7041    0.2935    0.6391 C   0  0  0  0  0  0  0  0  0  0  0  0
   -6.7659   -1.0009    0.1212 C   0  0  0  0  0  0  0  0  0  0  0  0
   -5.6036   -1.6282   -0.3294 C   0  0  0  0  0  0  0  0  0  0  0  0
   -4.3731   -0.9677   -0.2573 C   0  0  0  0  0  0  0  0  0  0  0  0
    2.0063    1.5507    0.6944 C   0  0  0  0  0  0  0  0  0  0  0  0
    1.8652    2.7287    1.3467 O   0  0  0  0  0  0  0  0  0  0  0  0
    3.3258    1.0256    0.5605 C   0  0  0  0  0  0  0  0  0  0  0  0
    4.4294    1.6733    1.0406 O   0  0  0  0  0  0  0  0  0  0  0  0
    4.5217    2.9291    1.6047 C   0  0  0  0  0  0  0  0  0  0  0  0
    6.4837   -0.6431   -1.2345 H   0  0  0  0  0  0  0  0  0  0  0  0
    5.8464    0.9053   -0.6539 H   0  0  0  0  0  0  0  0  0  0  0  0
    6.5781   -0.2833    0.5278 H   0  0  0  0  0  0  0  0  0  0  0  0
    2.6198   -1.8879   -1.0095 H   0  0  0  0  0  0  0  0  0  0  0  0
    0.8241   -2.2412   -2.5641 H   0  0  0  0  0  0  0  0  0  0  0  0
    0.5955   -3.1323   -0.9880 H   0  0  0  0  0  0  0  0  0  0  0  0
   -0.8281   -2.6611   -1.9839 H   0  0  0  0  0  0  0  0  0  0  0  0
   -1.7385   -0.4984    0.0374 H   0  0  0  0  0  0  0  0  0  0  0  0
   -3.0905    2.1687    0.5791 H   0  0  0  0  0  0  0  0  0  0  0  0
   -5.4518    1.9703    1.1092 H   0  0  0  0  0  0  0  0  0  0  0  0
   -7.6062    0.7782    0.9892 H   0  0  0  0  0  0  0  0  0  0  0  0
   -7.7155   -1.5174    0.0661 H   0  0  0  0  0  0  0  0  0  0  0  0
   -5.6552   -2.6289   -0.7389 H   0  0  0  0  0  0  0  0  0  0  0  0
   -3.5005   -1.4834   -0.6272 H   0  0  0  0  0  0  0  0  0  0  0  0
    1.0529    3.1310    1.6626 H   0  0  0  0  0  0  0  0  0  0  0  0
    5.5862    3.1366    1.8374 H   0  0  0  0  0  0  0  0  0  0  0  0
    3.9538    2.9774    2.5569 H   0  0  0  0  0  0  0  0  0  0  0  0
    4.1728    3.7000    0.8844 H   0  0  0  0  0  0  0  0  0  0  0  0
  1 24  1  0  0  0  0
  1 25  1  0  0  0  0
  1 26  1  0  0  0  0
  2  1  1  0  0  0  0
  3  2  1  0  0  0  0
  4  3  2  0  0  0  0
  4 27  1  0  0  0  0
  5  4  1  0  0  0  0
  6  5  1  0  0  0  0
  7  6  1  0  0  0  0
  7 28  1  0  0  0  0
  7 29  1  0  0  0  0
  7 30  1  0  0  0  0
  8  5  2  0  0  0  0
  9  8  1  0  0  0  0
 10  9  2  0  0  0  0
 11  9  1  0  0  0  0
 11 31  1  0  0  0  0
 12 11  2  0  0  0  0
 12 32  1  0  0  0  0
 13 12  1  0  0  0  0
 14 13  2  0  0  0  0
 14 33  1  0  0  0  0
 15 14  1  0  0  0  0
 15 34  1  0  0  0  0
 16 15  2  0  0  0  0
 16 35  1  0  0  0  0
 17 16  1  0  0  0  0
 17 36  1  0  0  0  0
 18 17  2  0  0  0  0
 18 13  1  0  0  0  0
 18 37  1  0  0  0  0
 19  8  1  0  0  0  0
 20 19  1  0  0  0  0
 20 38  1  0  0  0  0
 21 19  2  0  0  0  0
 21  3  1  0  0  0  0
 22 21  1  0  0  0  0
 23 22  1  0  0  0  0
 23 39  1  0  0  0  0
 23 40  1  0  0  0  0
 23 41  1  0  0  0  0
M  END
>  <MOL Chiral Flag>
0

>  <energy>
100.03481808382588

$$$$
