>286.sdf
 OpenBabel10062212143D

 56 60  0  0  0  0  0  0  0  0999 V2000
   -4.4208    4.5247    1.3027 O   0  0  0  0  0  0  0  0  0  0  0  0
   -3.1220    4.3262    1.0311 N   0  0  0  0  0  0  0  0  0  0  0  0
   -2.7414    3.3655    0.1517 C   0  0  0  0  0  0  0  0  0  0  0  0
   -3.5878    2.6894   -0.4170 O   0  0  0  0  0  0  0  0  0  0  0  0
   -1.2760    3.1400   -0.1566 C   0  0  0  0  0  0  0  0  0  0  0  0
   -0.6787    1.8358    0.2174 N   0  0  0  0  0  0  0  0  0  0  0  0
   -1.3366    0.8941    0.9762 C   0  0  0  0  0  0  0  0  0  0  0  0
   -2.4897    1.0633    1.3417 O   0  0  0  0  0  0  0  0  0  0  0  0
   -0.5984   -0.3199    1.4630 C   0  0  1  0  0  0  0  0  0  0  0  0
   -1.5425   -1.4432    1.9749 C   0  0  0  0  0  0  0  0  0  0  0  0
   -2.5296   -1.9525    0.9405 C   0  0  0  0  0  0  0  0  0  0  0  0
   -3.9097   -1.7541    1.1328 C   0  0  0  0  0  0  0  0  0  0  0  0
   -4.8296   -2.2218    0.1897 C   0  0  0  0  0  0  0  0  0  0  0  0
   -4.3843   -2.8961   -0.9489 C   0  0  0  0  0  0  0  0  0  0  0  0
   -3.0180   -3.1062   -1.1464 C   0  0  0  0  0  0  0  0  0  0  0  0
   -2.0923   -2.6391   -0.2083 C   0  0  0  0  0  0  0  0  0  0  0  0
    0.2800   -0.7805    0.3971 N   0  0  0  0  0  0  0  0  0  0  0  0
    1.3205    0.2112   -0.0037 C   0  0  2  0  0  0  0  0  0  0  0  0
    1.9829   -0.3169   -1.3439 C   0  0  1  0  0  0  0  0  0  0  0  0
    3.1202    0.6165   -1.8583 C   0  0  0  0  0  0  0  0  0  0  0  0
    4.2198    0.7425   -0.7806 C   0  0  2  0  0  0  0  0  0  0  0  0
    4.8392   -0.6460   -0.5352 C   0  0  0  0  0  0  0  0  0  0  0  0
    3.7456   -1.6108   -0.0412 C   0  0  2  0  0  0  0  0  0  0  0  0
    2.6381   -1.7153   -1.1199 C   0  0  0  0  0  0  0  0  0  0  0  0
    3.1684   -1.0694    1.2880 C   0  0  0  0  0  0  0  0  0  0  0  0
    2.5019    0.3165    1.0468 C   0  0  1  0  0  0  0  0  0  0  0  0
    3.6220    1.2750    0.5442 C   0  0  0  0  0  0  0  0  0  0  0  0
    0.6163    1.5939   -0.1985 C   0  0  0  0  0  0  0  0  0  0  0  0
    1.2231    2.4970   -0.7536 O   0  0  0  0  0  0  0  0  0  0  0  0
   -4.6953    5.2708    0.7104 H   0  0  0  0  0  0  0  0  0  0  0  0
   -2.4143    4.9014    1.5121 H   0  0  0  0  0  0  0  0  0  0  0  0
   -0.6739    3.9386    0.3305 H   0  0  0  0  0  0  0  0  0  0  0  0
   -1.1829    3.2790   -1.2567 H   0  0  0  0  0  0  0  0  0  0  0  0
    0.0283   -0.0136    2.3271 H   0  0  0  0  0  0  0  0  0  0  0  0
   -2.0964   -1.0327    2.8482 H   0  0  0  0  0  0  0  0  0  0  0  0
   -0.9437   -2.2989    2.3549 H   0  0  0  0  0  0  0  0  0  0  0  0
   -4.2726   -1.2335    2.0102 H   0  0  0  0  0  0  0  0  0  0  0  0
   -5.8891   -2.0617    0.3429 H   0  0  0  0  0  0  0  0  0  0  0  0
   -5.0984   -3.2591   -1.6768 H   0  0  0  0  0  0  0  0  0  0  0  0
   -2.6749   -3.6343   -2.0267 H   0  0  0  0  0  0  0  0  0  0  0  0
   -1.0424   -2.8239   -0.3789 H   0  0  0  0  0  0  0  0  0  0  0  0
    0.6747   -1.6967    0.6826 H   0  0  0  0  0  0  0  0  0  0  0  0
    1.2035   -0.4075   -2.1320 H   0  0  0  0  0  0  0  0  0  0  0  0
    2.7553    1.6138   -2.1527 H   0  0  0  0  0  0  0  0  0  0  0  0
    3.5595    0.1968   -2.7906 H   0  0  0  0  0  0  0  0  0  0  0  0
    5.0163    1.4308   -1.1383 H   0  0  0  0  0  0  0  0  0  0  0  0
    5.2913   -1.0327   -1.4752 H   0  0  0  0  0  0  0  0  0  0  0  0
    5.6531   -0.5728    0.2196 H   0  0  0  0  0  0  0  0  0  0  0  0
    4.2010   -2.6106    0.1288 H   0  0  0  0  0  0  0  0  0  0  0  0
    3.0825   -2.0807   -2.0723 H   0  0  0  0  0  0  0  0  0  0  0  0
    1.8926   -2.4829   -0.8379 H   0  0  0  0  0  0  0  0  0  0  0  0
    3.9874   -0.9684    2.0344 H   0  0  0  0  0  0  0  0  0  0  0  0
    2.4648   -1.7972    1.7335 H   0  0  0  0  0  0  0  0  0  0  0  0
    2.1210    0.7029    2.0149 H   0  0  0  0  0  0  0  0  0  0  0  0
    4.4267    1.3436    1.3093 H   0  0  0  0  0  0  0  0  0  0  0  0
    3.2485    2.3076    0.4137 H   0  0  0  0  0  0  0  0  0  0  0  0
  1 30  1  0  0  0  0
  2  1  1  0  0  0  0
  2 31  1  0  0  0  0
  3  2  1  0  0  0  0
  4  3  2  0  0  0  0
  5  3  1  0  0  0  0
  5 32  1  0  0  0  0
  5 33  1  0  0  0  0
  6  5  1  0  0  0  0
  7  6  1  0  0  0  0
  8  7  2  0  0  0  0
  9  7  1  0  0  0  0
  9 34  1  1  0  0  0
 10  9  1  0  0  0  0
 10 35  1  0  0  0  0
 10 36  1  0  0  0  0
 11 10  1  0  0  0  0
 12 11  2  0  0  0  0
 12 37  1  0  0  0  0
 13 12  1  0  0  0  0
 13 38  1  0  0  0  0
 14 13  2  0  0  0  0
 14 39  1  0  0  0  0
 15 14  1  0  0  0  0
 15 40  1  0  0  0  0
 16 15  2  0  0  0  0
 16 11  1  0  0  0  0
 16 41  1  0  0  0  0
 17  9  1  0  0  0  0
 17 42  1  0  0  0  0
 18 17  1  1  0  0  0
 19 18  1  0  0  0  0
 19 43  1  6  0  0  0
 20 19  1  0  0  0  0
 20 44  1  0  0  0  0
 20 45  1  0  0  0  0
 21 20  1  0  0  0  0
 21 46  1  6  0  0  0
 22 21  1  0  0  0  0
 22 47  1  0  0  0  0
 22 48  1  0  0  0  0
 23 22  1  0  0  0  0
 23 49  1  1  0  0  0
 24 23  1  0  0  0  0
 24 19  1  0  0  0  0
 24 50  1  0  0  0  0
 24 51  1  0  0  0  0
 25 23  1  0  0  0  0
 25 52  1  0  0  0  0
 25 53  1  0  0  0  0
 26 25  1  0  0  0  0
 26 18  1  0  0  0  0
 26 54  1  1  0  0  0
 27 26  1  0  0  0  0
 27 21  1  0  0  0  0
 27 55  1  0  0  0  0
 27 56  1  0  0  0  0
 28 18  1  0  0  0  0
 28  6  1  0  0  0  0
 29 28  2  0  0  0  0
M  END
>  <MOL Chiral Flag>
0

>  <energy>
156.53445555202103

$$$$
