>287.sdf
 OpenBabel10102214123D

 61 63  0  0  0  0  0  0  0  0999 V2000
   -1.7769   -1.7564    0.0926 C   0  0  0  0  0  0  0  0  0  0  0  0
   -0.7941   -2.8037    0.6319 C   0  0  0  0  0  0  0  0  0  0  0  0
    0.0564   -3.5083   -0.4328 C   0  0  0  0  0  0  0  0  0  0  0  0
    1.0356   -4.4767    0.2596 C   0  0  0  0  0  0  0  0  0  0  0  0
    1.9255   -5.2301   -0.7363 C   0  0  0  0  0  0  0  0  0  0  0  0
    2.9358   -6.1296    0.0003 C   0  0  0  0  0  0  0  0  0  0  0  0
    3.8576   -6.8496   -0.9942 C   0  0  0  0  0  0  0  0  0  0  0  0
    5.0195   -7.6368   -0.3567 C   0  0  0  0  0  0  0  0  0  0  0  0
    4.5950   -8.8023    0.4239 N   0  3  0  0  0  0  0  0  0  0  0  0
    4.8342  -10.0922    0.1099 C   0  0  0  0  0  0  0  0  0  0  0  0
    4.3407  -10.9219    1.0474 N   0  0  0  0  0  0  0  0  0  0  0  0
    4.4151  -12.3769    1.0427 C   0  0  0  0  0  0  0  0  0  0  0  0
    3.7773  -10.1378    1.9882 C   0  0  0  0  0  0  0  0  0  0  0  0
    3.9379   -8.8221    1.6046 C   0  0  0  0  0  0  0  0  0  0  0  0
   -2.5376   -1.3554    1.1728 O   0  0  0  0  0  0  0  0  0  0  0  0
   -2.7119   -0.1301    1.7333 C   0  0  0  0  0  0  0  0  0  0  0  0
   -2.4793    1.0968    1.0693 C   0  0  0  0  0  0  0  0  0  0  0  0
   -2.7220    2.3224    1.7388 C   0  0  0  0  0  0  0  0  0  0  0  0
   -3.1807    2.3226    3.0775 C   0  0  0  0  0  0  0  0  0  0  0  0
   -3.3830    1.0832    3.7122 C   0  0  0  0  0  0  0  0  0  0  0  0
   -3.1617   -0.1113    3.0477 C   0  0  0  0  0  0  0  0  0  0  0  0
   -3.4969    3.5587    3.8715 C   0  0  0  0  0  0  0  0  0  0  0  0
   -3.8239    3.4036    5.0416 O   0  0  0  0  0  0  0  0  0  0  0  0
   -3.5044    4.9580    3.3340 C   0  0  0  0  0  0  0  0  0  0  0  0
   -3.9732    5.9498    4.1281 C   0  0  0  0  0  0  0  0  0  0  0  0
   -4.0846    7.3688    3.7530 C   0  0  0  0  0  0  0  0  0  0  0  0
   -4.6513    8.3294    4.5664 C   0  0  0  0  0  0  0  0  0  0  0  0
   -4.5728    9.5107    3.8717 C   0  0  0  0  0  0  0  0  0  0  0  0
   -3.9598    9.2086    2.6711 C   0  0  0  0  0  0  0  0  0  0  0  0
   -3.6837    7.9197    2.6300 O   0  0  0  0  0  0  0  0  0  0  0  0
   -1.2271   -0.9190   -0.3835 H   0  0  0  0  0  0  0  0  0  0  0  0
   -0.1257   -2.2929    1.3594 H   0  0  0  0  0  0  0  0  0  0  0  0
   -1.3729   -3.5842    1.1758 H   0  0  0  0  0  0  0  0  0  0  0  0
    0.6289   -2.7550   -1.0154 H   0  0  0  0  0  0  0  0  0  0  0  0
   -0.6074   -4.0724   -1.1252 H   0  0  0  0  0  0  0  0  0  0  0  0
    1.6860   -3.8886    0.9446 H   0  0  0  0  0  0  0  0  0  0  0  0
    0.4649   -5.2172    0.8634 H   0  0  0  0  0  0  0  0  0  0  0  0
    2.4815   -4.4897   -1.3518 H   0  0  0  0  0  0  0  0  0  0  0  0
    1.2906   -5.8504   -1.4064 H   0  0  0  0  0  0  0  0  0  0  0  0
    2.3778   -6.8688    0.6089 H   0  0  0  0  0  0  0  0  0  0  0  0
    3.5577   -5.4954    0.6701 H   0  0  0  0  0  0  0  0  0  0  0  0
    4.3254   -6.0737   -1.6393 H   0  0  0  0  0  0  0  0  0  0  0  0
    3.2606   -7.5254   -1.6443 H   0  0  0  0  0  0  0  0  0  0  0  0
    5.6489   -6.9720    0.2736 H   0  0  0  0  0  0  0  0  0  0  0  0
    5.6532   -7.9904   -1.2004 H   0  0  0  0  0  0  0  0  0  0  0  0
    5.3592  -10.4206   -0.7801 H   0  0  0  0  0  0  0  0  0  0  0  0
    5.4786  -12.6967    1.0284 H   0  0  0  0  0  0  0  0  0  0  0  0
    3.9270  -12.7974    1.9478 H   0  0  0  0  0  0  0  0  0  0  0  0
    3.9029  -12.7744    0.1413 H   0  0  0  0  0  0  0  0  0  0  0  0
    3.2959  -10.4969    2.8888 H   0  0  0  0  0  0  0  0  0  0  0  0
    3.6147   -7.9512    2.1573 H   0  0  0  0  0  0  0  0  0  0  0  0
   -2.1362    1.1137    0.0436 H   0  0  0  0  0  0  0  0  0  0  0  0
   -2.5540    3.2515    1.2111 H   0  0  0  0  0  0  0  0  0  0  0  0
   -3.7341    1.0338    4.7345 H   0  0  0  0  0  0  0  0  0  0  0  0
   -3.3403   -1.0446    3.5666 H   0  0  0  0  0  0  0  0  0  0  0  0
   -3.1741    5.1757    2.3232 H   0  0  0  0  0  0  0  0  0  0  0  0
   -4.3247    5.7066    5.1263 H   0  0  0  0  0  0  0  0  0  0  0  0
   -5.0776    8.1821    5.5514 H   0  0  0  0  0  0  0  0  0  0  0  0
   -4.9243   10.4789    4.2058 H   0  0  0  0  0  0  0  0  0  0  0  0
   -3.7382    9.9140    1.8820 H   0  0  0  0  0  0  0  0  0  0  0  0
   -2.4518   -2.2250   -0.6563 H   0  0  0  0  0  0  0  0  0  0  0  0
  1 31  1  0  0  0  0
  1 61  1  0  0  0  0
  2  1  1  0  0  0  0
  2 32  1  0  0  0  0
  2 33  1  0  0  0  0
  3  2  1  0  0  0  0
  3 34  1  0  0  0  0
  3 35  1  0  0  0  0
  4  3  1  0  0  0  0
  4 36  1  0  0  0  0
  4 37  1  0  0  0  0
  5  4  1  0  0  0  0
  5 38  1  0  0  0  0
  5 39  1  0  0  0  0
  6  5  1  0  0  0  0
  6 40  1  0  0  0  0
  6 41  1  0  0  0  0
  7  6  1  0  0  0  0
  7 42  1  0  0  0  0
  7 43  1  0  0  0  0
  8  7  1  0  0  0  0
  8 44  1  0  0  0  0
  8 45  1  0  0  0  0
  9  8  1  0  0  0  0
 10  9  2  0  0  0  0
 10 46  1  0  0  0  0
 11 10  1  0  0  0  0
 12 11  1  0  0  0  0
 12 47  1  0  0  0  0
 12 48  1  0  0  0  0
 12 49  1  0  0  0  0
 13 11  1  0  0  0  0
 13 50  1  0  0  0  0
 14 13  2  0  0  0  0
 14  9  1  0  0  0  0
 14 51  1  0  0  0  0
 15  1  1  0  0  0  0
 16 15  1  0  0  0  0
 17 16  2  0  0  0  0
 17 52  1  0  0  0  0
 18 17  1  0  0  0  0
 18 53  1  0  0  0  0
 19 18  2  0  0  0  0
 20 19  1  0  0  0  0
 20 54  1  0  0  0  0
 21 20  2  0  0  0  0
 21 16  1  0  0  0  0
 21 55  1  0  0  0  0
 22 19  1  0  0  0  0
 23 22  2  0  0  0  0
 24 22  1  0  0  0  0
 24 56  1  0  0  0  0
 25 24  2  0  0  0  0
 25 57  1  0  0  0  0
 26 25  1  0  0  0  0
 27 26  2  0  0  0  0
 27 58  1  0  0  0  0
 28 27  1  0  0  0  0
 28 59  1  0  0  0  0
 29 28  2  0  0  0  0
 29 60  1  0  0  0  0
 30 29  1  0  0  0  0
 30 26  1  0  0  0  0
M  CHG  1   9   1
M  END
>  <MOL Chiral Flag>
0

>  <energy>
92.692540611066718

$$$$
