>293.sdf
 OpenBabel10062212183D

 55 55  0  0  0  0  0  0  0  0999 V2000
   -1.4830  -10.5429   -2.2041 O   0  0  0  0  0  0  0  0  0  0  0  0
   -1.9507  -10.3991   -3.4566 C   0  0  0  0  0  0  0  0  0  0  0  0
   -1.8433  -11.3226   -4.2504 O   0  0  0  0  0  0  0  0  0  0  0  0
   -2.6893   -9.1623   -3.8749 C   0  0  0  0  0  0  0  0  0  0  0  0
   -2.8139   -7.9943   -2.8719 C   0  0  0  0  0  0  0  0  0  0  0  0
   -1.6007   -7.0139   -2.7089 C   0  0  0  0  0  0  0  0  0  0  0  0
   -2.1915   -5.5835   -2.4982 C   0  0  0  0  0  0  0  0  0  0  0  0
   -1.3394   -4.3963   -2.2040 C   0  0  0  0  0  0  0  0  0  0  0  0
   -0.8546   -3.3059   -1.9318 C   0  0  0  0  0  0  0  0  0  0  0  0
   -0.3109   -1.9935   -1.4469 C   0  0  0  0  0  0  0  0  0  0  0  0
    0.2525   -1.0881   -2.5679 C   0  0  0  0  0  0  0  0  0  0  0  0
    1.2842    0.0201   -2.1452 C   0  0  0  0  0  0  0  0  0  0  0  0
    0.9424    1.2602   -1.2355 C   0  0  0  0  0  0  0  0  0  0  0  0
    1.4154    2.6345   -1.8565 C   0  0  0  0  0  0  0  0  0  0  0  0
    1.3278    3.8639   -0.8956 C   0  0  0  0  0  0  0  0  0  0  0  0
    1.9526    5.2249   -1.4188 C   0  0  0  0  0  0  0  0  0  0  0  0
    1.7448    6.3607   -0.3590 C   0  0  0  0  0  0  0  0  0  0  0  0
    2.7548    7.5476   -0.1430 C   0  0  0  0  0  0  0  0  0  0  0  0
    2.9003    8.9489   -0.7633 C   0  0  0  0  0  0  0  0  0  0  0  0
    2.2494    9.4376   -1.9179 C   0  0  0  0  0  0  0  0  0  0  0  0
    2.4638   10.7760   -2.3342 C   0  0  0  0  0  0  0  0  0  0  0  0
    3.3059   11.6265   -1.6047 C   0  0  0  0  0  0  0  0  0  0  0  0
    3.9461   11.1533   -0.4668 C   0  0  0  0  0  0  0  0  0  0  0  0
    3.7520    9.8346   -0.0569 C   0  0  0  0  0  0  0  0  0  0  0  0
   -3.7238   -9.5131   -4.0968 H   0  0  0  0  0  0  0  0  0  0  0  0
   -2.2650   -8.7648   -4.8206 H   0  0  0  0  0  0  0  0  0  0  0  0
   -3.2051   -8.3187   -1.8802 H   0  0  0  0  0  0  0  0  0  0  0  0
   -3.6314   -7.4078   -3.3387 H   0  0  0  0  0  0  0  0  0  0  0  0
   -0.9586   -7.3540   -1.8637 H   0  0  0  0  0  0  0  0  0  0  0  0
   -0.9796   -6.9948   -3.6299 H   0  0  0  0  0  0  0  0  0  0  0  0
   -2.7449   -5.3299   -3.4297 H   0  0  0  0  0  0  0  0  0  0  0  0
   -2.9218   -5.6405   -1.6675 H   0  0  0  0  0  0  0  0  0  0  0  0
   -1.1058   -1.4428   -0.8985 H   0  0  0  0  0  0  0  0  0  0  0  0
    0.4975   -2.2498   -0.7361 H   0  0  0  0  0  0  0  0  0  0  0  0
   -0.5747   -0.6736   -3.1874 H   0  0  0  0  0  0  0  0  0  0  0  0
    0.8401   -1.7616   -3.2309 H   0  0  0  0  0  0  0  0  0  0  0  0
    2.1293   -0.5157   -1.6601 H   0  0  0  0  0  0  0  0  0  0  0  0
    1.6992    0.4118   -3.0967 H   0  0  0  0  0  0  0  0  0  0  0  0
   -0.1258    1.2818   -0.9352 H   0  0  0  0  0  0  0  0  0  0  0  0
    1.5245    1.1225   -0.2943 H   0  0  0  0  0  0  0  0  0  0  0  0
    2.4779    2.5252   -2.1594 H   0  0  0  0  0  0  0  0  0  0  0  0
    0.8068    2.8448   -2.7614 H   0  0  0  0  0  0  0  0  0  0  0  0
    0.2655    4.0210   -0.6152 H   0  0  0  0  0  0  0  0  0  0  0  0
    1.8881    3.5915    0.0285 H   0  0  0  0  0  0  0  0  0  0  0  0
    1.5151    5.5385   -2.3905 H   0  0  0  0  0  0  0  0  0  0  0  0
    3.0398    5.0447   -1.5626 H   0  0  0  0  0  0  0  0  0  0  0  0
    1.9013    5.8120    0.5968 H   0  0  0  0  0  0  0  0  0  0  0  0
    0.6884    6.7025   -0.3378 H   0  0  0  0  0  0  0  0  0  0  0  0
    2.4909    7.8414    0.8989 H   0  0  0  0  0  0  0  0  0  0  0  0
    3.7733    7.1071   -0.1152 H   0  0  0  0  0  0  0  0  0  0  0  0
    1.5870    8.8082   -2.4928 H   0  0  0  0  0  0  0  0  0  0  0  0
    1.9748   11.1662   -3.2186 H   0  0  0  0  0  0  0  0  0  0  0  0
    3.4630   12.6554   -1.9156 H   0  0  0  0  0  0  0  0  0  0  0  0
    4.5926   11.8090    0.1079 H   0  0  0  0  0  0  0  0  0  0  0  0
    4.2559    9.4978    0.8405 H   0  0  0  0  0  0  0  0  0  0  0  0
  2  1  1  0  0  0  0
  3  2  2  0  0  0  0
  4  2  1  0  0  0  0
  4 25  1  0  0  0  0
  4 26  1  0  0  0  0
  5  4  1  0  0  0  0
  5 27  1  0  0  0  0
  5 28  1  0  0  0  0
  6  5  1  0  0  0  0
  6 29  1  0  0  0  0
  6 30  1  0  0  0  0
  7  6  1  0  0  0  0
  7 31  1  0  0  0  0
  7 32  1  0  0  0  0
  8  7  1  0  0  0  0
  9  8  3  0  0  0  0
 10  9  1  0  0  0  0
 10 33  1  0  0  0  0
 10 34  1  0  0  0  0
 11 10  1  0  0  0  0
 11 35  1  0  0  0  0
 11 36  1  0  0  0  0
 12 11  1  0  0  0  0
 12 37  1  0  0  0  0
 12 38  1  0  0  0  0
 13 12  1  0  0  0  0
 13 39  1  0  0  0  0
 13 40  1  0  0  0  0
 14 13  1  0  0  0  0
 14 41  1  0  0  0  0
 14 42  1  0  0  0  0
 15 14  1  0  0  0  0
 15 43  1  0  0  0  0
 15 44  1  0  0  0  0
 16 15  1  0  0  0  0
 16 45  1  0  0  0  0
 16 46  1  0  0  0  0
 17 16  1  0  0  0  0
 17 47  1  0  0  0  0
 17 48  1  0  0  0  0
 18 17  1  0  0  0  0
 18 49  1  0  0  0  0
 18 50  1  0  0  0  0
 19 18  1  0  0  0  0
 20 19  2  0  0  0  0
 20 51  1  0  0  0  0
 21 20  1  0  0  0  0
 21 52  1  0  0  0  0
 22 21  2  0  0  0  0
 22 53  1  0  0  0  0
 23 22  1  0  0  0  0
 23 54  1  0  0  0  0
 24 23  2  0  0  0  0
 24 19  1  0  0  0  0
 24 55  1  0  0  0  0
M  END
>  <MOL Chiral Flag>
0

>  <energy>
10.18304559139856

$$$$
