>301.sdf
 OpenBabel10062212223D

 40 44  0  0  0  0  0  0  0  0999 V2000
    5.0540   -3.1130   -0.8766 O   0  0  0  0  0  0  0  0  0  0  0  0
    5.3901   -2.5493    0.1492 C   0  0  0  0  0  0  0  0  0  0  0  0
    4.5685   -1.8385    0.9693 N   0  0  0  0  0  0  0  0  0  0  0  0
    3.2126   -1.5704    0.8550 N   0  0  0  0  0  0  0  0  0  0  0  0
    2.2486   -2.1716   -0.0021 C   0  0  0  0  0  0  0  0  0  0  0  0
    1.0194   -1.6321   -0.0910 N   0  0  0  0  0  0  0  0  0  0  0  0
    0.1489   -2.3326   -0.8874 C   0  0  0  0  0  0  0  0  0  0  0  0
    0.6975   -3.5045   -1.4523 C   0  0  0  0  0  0  0  0  0  0  0  0
    2.2775   -3.5649   -0.9022 S   0  0  0  0  0  0  0  0  0  0  0  0
   -1.2280   -1.8040   -1.0696 C   0  0  0  0  0  0  0  0  0  0  0  0
   -1.5398   -0.5751   -0.4568 C   0  0  0  0  0  0  0  0  0  0  0  0
   -2.8010   -0.0030   -0.5864 C   0  0  0  0  0  0  0  0  0  0  0  0
   -3.0777    1.2270    0.0286 C   0  0  0  0  0  0  0  0  0  0  0  0
   -4.3385    1.8056   -0.1027 C   0  0  0  0  0  0  0  0  0  0  0  0
   -5.3305    1.1603   -0.8460 C   0  0  0  0  0  0  0  0  0  0  0  0
   -5.0644   -0.0701   -1.4634 C   0  0  0  0  0  0  0  0  0  0  0  0
   -3.7952   -0.6610   -1.3389 C   0  0  0  0  0  0  0  0  0  0  0  0
   -3.4984   -1.8928   -1.9521 C   0  0  0  0  0  0  0  0  0  0  0  0
   -2.2192   -2.4626   -1.8211 C   0  0  0  0  0  0  0  0  0  0  0  0
    5.3169   -1.2958    1.9585 C   0  0  0  0  0  0  0  0  0  0  0  0
    4.8744   -0.5800    2.8442 O   0  0  0  0  0  0  0  0  0  0  0  0
    6.7073   -1.6639    1.7847 C   0  0  0  0  0  0  0  0  0  0  0  0
    6.7691   -2.4463    0.6542 C   0  0  0  0  0  0  0  0  0  0  0  0
    7.9870   -2.9438    0.1924 C   0  0  0  0  0  0  0  0  0  0  0  0
    9.1532   -2.6241    0.9207 C   0  0  0  0  0  0  0  0  0  0  0  0
    9.0757   -1.8222    2.0837 C   0  0  0  0  0  0  0  0  0  0  0  0
    7.8359   -1.3336    2.5239 C   0  0  0  0  0  0  0  0  0  0  0  0
    2.8339   -0.8234    1.4569 H   0  0  0  0  0  0  0  0  0  0  0  0
    0.2092   -4.2165   -2.1048 H   0  0  0  0  0  0  0  0  0  0  0  0
   -0.7926   -0.0488    0.1248 H   0  0  0  0  0  0  0  0  0  0  0  0
   -2.3154    1.7373    0.6074 H   0  0  0  0  0  0  0  0  0  0  0  0
   -4.5446    2.7561    0.3729 H   0  0  0  0  0  0  0  0  0  0  0  0
   -6.3065    1.6165   -0.9435 H   0  0  0  0  0  0  0  0  0  0  0  0
   -5.8443   -0.5554   -2.0360 H   0  0  0  0  0  0  0  0  0  0  0  0
   -4.2541   -2.4088   -2.5323 H   0  0  0  0  0  0  0  0  0  0  0  0
   -2.0119   -3.4087   -2.3029 H   0  0  0  0  0  0  0  0  0  0  0  0
    8.0402   -3.5500   -0.7016 H   0  0  0  0  0  0  0  0  0  0  0  0
   10.1154   -2.9888    0.5874 H   0  0  0  0  0  0  0  0  0  0  0  0
    9.9736   -1.5764    2.6357 H   0  0  0  0  0  0  0  0  0  0  0  0
    7.7596   -0.7112    3.4067 H   0  0  0  0  0  0  0  0  0  0  0  0
  2  1  2  0  0  0  0
  3  2  1  0  0  0  0
  4  3  1  0  0  0  0
  4 28  1  0  0  0  0
  5  4  1  0  0  0  0
  6  5  2  0  0  0  0
  7  6  1  0  0  0  0
  8  7  2  0  0  0  0
  8 29  1  0  0  0  0
  9  8  1  0  0  0  0
  9  5  1  0  0  0  0
 10  7  1  0  0  0  0
 11 10  2  0  0  0  0
 11 30  1  0  0  0  0
 12 11  1  0  0  0  0
 13 12  2  0  0  0  0
 13 31  1  0  0  0  0
 14 13  1  0  0  0  0
 14 32  1  0  0  0  0
 15 14  2  0  0  0  0
 15 33  1  0  0  0  0
 16 15  1  0  0  0  0
 16 34  1  0  0  0  0
 17 16  2  0  0  0  0
 17 12  1  0  0  0  0
 18 17  1  0  0  0  0
 18 35  1  0  0  0  0
 19 18  2  0  0  0  0
 19 10  1  0  0  0  0
 19 36  1  0  0  0  0
 20  3  1  0  0  0  0
 21 20  2  0  0  0  0
 22 20  1  0  0  0  0
 23 22  2  0  0  0  0
 23  2  1  0  0  0  0
 24 23  1  0  0  0  0
 24 37  1  0  0  0  0
 25 24  2  0  0  0  0
 25 38  1  0  0  0  0
 26 25  1  0  0  0  0
 26 39  1  0  0  0  0
 27 26  2  0  0  0  0
 27 22  1  0  0  0  0
 27 40  1  0  0  0  0
M  END
>  <MOL Chiral Flag>
0

>  <energy>
79.081989043986781

$$$$
