>305.sdf
 OpenBabel10062212263D

 43 46  0  0  0  0  0  0  0  0999 V2000
    7.3828    3.3618    1.6524 Cl  0  0  0  0  0  0  0  0  0  0  0  0
    6.1037    2.3209    1.0550 C   0  0  0  0  0  0  0  0  0  0  0  0
    5.5377    1.3575    1.8947 C   0  0  0  0  0  0  0  0  0  0  0  0
    4.5147    0.5267    1.4280 C   0  0  0  0  0  0  0  0  0  0  0  0
    4.0387    0.6606    0.1088 C   0  0  0  0  0  0  0  0  0  0  0  0
    2.9790   -0.1304   -0.3942 C   0  0  0  0  0  0  0  0  0  0  0  0
    2.3962   -1.1811    0.3831 N   0  0  0  0  0  0  0  0  0  0  0  0
    1.0145   -1.5217    0.3027 C   0  0  0  0  0  0  0  0  0  0  0  0
    0.6022   -2.8506    0.4906 C   0  0  0  0  0  0  0  0  0  0  0  0
   -0.7567   -3.1845    0.4151 C   0  0  0  0  0  0  0  0  0  0  0  0
   -1.7128   -2.1862    0.1872 C   0  0  0  0  0  0  0  0  0  0  0  0
   -1.3054   -0.8576    0.0303 C   0  0  0  0  0  0  0  0  0  0  0  0
    0.0472   -0.5270    0.0770 C   0  0  0  0  0  0  0  0  0  0  0  0
   -3.4544   -2.5914    0.0480 S   0  0  0  0  0  0  0  0  0  0  0  0
   -4.2300   -2.7948    1.3569 O   0  0  0  0  0  0  0  0  0  0  0  0
   -3.6475   -3.9414   -0.6587 O   0  0  0  0  0  0  0  0  0  0  0  0
   -4.3514   -1.4717   -0.9784 N   0  0  0  0  0  0  0  0  0  0  0  0
   -4.7837   -0.1847   -0.5434 C   0  0  0  0  0  0  0  0  0  0  0  0
   -5.1666    0.0755    0.7869 C   0  0  0  0  0  0  0  0  0  0  0  0
   -5.5709    1.3628    1.1466 C   0  0  0  0  0  0  0  0  0  0  0  0
   -5.5734    2.3820    0.1964 C   0  0  0  0  0  0  0  0  0  0  0  0
   -5.1872    2.0950   -1.1120 C   0  0  0  0  0  0  0  0  0  0  0  0
   -4.8187    0.8313   -1.4520 N   0  0  0  0  0  0  0  0  0  0  0  0
    2.5305    0.0959   -1.7088 C   0  0  0  0  0  0  0  0  0  0  0  0
    3.1389    1.0691   -2.4991 C   0  0  0  0  0  0  0  0  0  0  0  0
    4.1563    1.8162   -2.0015 N   0  0  0  0  0  0  0  0  0  0  0  0
    4.6121    1.6482   -0.7325 C   0  0  0  0  0  0  0  0  0  0  0  0
    5.6442    2.4636   -0.2564 C   0  0  0  0  0  0  0  0  0  0  0  0
    5.8862    1.2560    2.9143 H   0  0  0  0  0  0  0  0  0  0  0  0
    4.0898   -0.1971    2.1088 H   0  0  0  0  0  0  0  0  0  0  0  0
    3.0126   -1.7654    0.9664 H   0  0  0  0  0  0  0  0  0  0  0  0
    1.3356   -3.6279    0.6643 H   0  0  0  0  0  0  0  0  0  0  0  0
   -1.0627   -4.2166    0.5279 H   0  0  0  0  0  0  0  0  0  0  0  0
   -2.0343   -0.0764   -0.1350 H   0  0  0  0  0  0  0  0  0  0  0  0
    0.3393    0.5090   -0.0383 H   0  0  0  0  0  0  0  0  0  0  0  0
   -4.2182   -1.6017   -1.9918 H   0  0  0  0  0  0  0  0  0  0  0  0
   -5.1792   -0.6910    1.5393 H   0  0  0  0  0  0  0  0  0  0  0  0
   -5.8801    1.5700    2.1632 H   0  0  0  0  0  0  0  0  0  0  0  0
   -5.8742    3.3849    0.4704 H   0  0  0  0  0  0  0  0  0  0  0  0
   -5.1788    2.8774   -1.8589 H   0  0  0  0  0  0  0  0  0  0  0  0
    1.7356   -0.5043   -2.1332 H   0  0  0  0  0  0  0  0  0  0  0  0
    2.8071    1.2234   -3.5173 H   0  0  0  0  0  0  0  0  0  0  0  0
    6.0812    3.2155   -0.9026 H   0  0  0  0  0  0  0  0  0  0  0  0
  2  1  1  0  0  0  0
  3  2  2  0  0  0  0
  3 29  1  0  0  0  0
  4  3  1  0  0  0  0
  4 30  1  0  0  0  0
  5  4  2  0  0  0  0
  6  5  1  0  0  0  0
  7  6  1  0  0  0  0
  7 31  1  0  0  0  0
  8  7  1  0  0  0  0
  9  8  2  0  0  0  0
  9 32  1  0  0  0  0
 10  9  1  0  0  0  0
 10 33  1  0  0  0  0
 11 10  2  0  0  0  0
 12 11  1  0  0  0  0
 12 34  1  0  0  0  0
 13 12  2  0  0  0  0
 13  8  1  0  0  0  0
 13 35  1  0  0  0  0
 14 11  1  0  0  0  0
 15 14  2  0  0  0  0
 16 14  2  0  0  0  0
 17 14  1  0  0  0  0
 17 36  1  0  0  0  0
 18 17  1  0  0  0  0
 19 18  2  0  0  0  0
 19 37  1  0  0  0  0
 20 19  1  0  0  0  0
 20 38  1  0  0  0  0
 21 20  2  0  0  0  0
 21 39  1  0  0  0  0
 22 21  1  0  0  0  0
 22 40  1  0  0  0  0
 23 22  2  0  0  0  0
 23 18  1  0  0  0  0
 24  6  2  0  0  0  0
 24 41  1  0  0  0  0
 25 24  1  0  0  0  0
 25 42  1  0  0  0  0
 26 25  2  0  0  0  0
 27 26  1  0  0  0  0
 27  5  1  0  0  0  0
 28 27  2  0  0  0  0
 28  2  1  0  0  0  0
 28 43  1  0  0  0  0
M  END
>  <MOL Chiral Flag>
0

>  <energy>
-29.484372936784567

$$$$
