>306.sdf
 OpenBabel10062212263D

 46 48  0  0  0  0  0  0  0  0999 V2000
    3.6433   -3.6058    0.4779 C   0  0  0  0  0  0  0  0  0  0  0  0
    2.3066   -3.0340    0.7094 N   0  3  2  0  0  0  0  0  0  0  0  0
    1.7468   -2.5127   -0.5603 C   0  0  0  0  0  0  0  0  0  0  0  0
    0.3403   -1.9385   -0.3328 C   0  0  0  0  0  0  0  0  0  0  0  0
    0.4348   -0.9263    0.7064 N   0  0  0  0  0  0  0  0  0  0  0  0
    1.0123   -1.3342    1.9741 C   0  0  0  0  0  0  0  0  0  0  0  0
    2.3920   -1.9562    1.7233 C   0  0  0  0  0  0  0  0  0  0  0  0
    0.0912    0.4449    0.4355 C   0  0  0  0  0  0  0  0  0  0  0  0
   -1.1270    0.7729   -0.0929 C   0  0  0  0  0  0  0  0  0  0  0  0
   -2.1738   -0.2951   -0.2504 C   0  0  0  0  0  0  0  0  0  0  0  0
   -3.0916   -0.4197   -1.2452 C   0  0  0  0  0  0  0  0  0  0  0  0
   -4.0969   -1.5426   -1.1764 C   0  0  0  0  0  0  0  0  0  0  0  0
   -3.1419    0.4562   -2.4741 C   0  0  0  0  0  0  0  0  0  0  0  0
   -1.4491    2.2140   -0.3697 C   0  0  0  0  0  0  0  0  0  0  0  0
   -2.5891    2.5449   -0.6596 O   0  0  0  0  0  0  0  0  0  0  0  0
   -0.4127    3.2600   -0.2040 C   0  0  0  0  0  0  0  0  0  0  0  0
    0.8451    2.9114    0.3098 C   0  0  0  0  0  0  0  0  0  0  0  0
    1.8348    3.9001    0.4637 C   0  0  0  0  0  0  0  0  0  0  0  0
    1.5680    5.2233    0.1073 C   0  0  0  0  0  0  0  0  0  0  0  0
    0.3148    5.5725   -0.3973 C   0  0  0  0  0  0  0  0  0  0  0  0
   -0.6754    4.5987   -0.5505 C   0  0  0  0  0  0  0  0  0  0  0  0
    1.1156    1.5060    0.6815 C   0  0  0  0  0  0  0  0  0  0  0  0
    2.2097    1.2034    1.1309 O   0  0  0  0  0  0  0  0  0  0  0  0
    3.5934   -4.4235   -0.2737 H   0  0  0  0  0  0  0  0  0  0  0  0
    4.0462   -4.0400    1.4194 H   0  0  0  0  0  0  0  0  0  0  0  0
    4.3543   -2.8308    0.1128 H   0  0  0  0  0  0  0  0  0  0  0  0
    1.6856   -3.7990    1.0671 H   0  0  0  0  0  0  0  0  0  0  0  0
    1.6870   -3.3192   -1.3245 H   0  0  0  0  0  0  0  0  0  0  0  0
    2.4018   -1.7042   -0.9626 H   0  0  0  0  0  0  0  0  0  0  0  0
   -0.3471   -2.7481   -0.0058 H   0  0  0  0  0  0  0  0  0  0  0  0
   -0.0318   -1.5165   -1.2921 H   0  0  0  0  0  0  0  0  0  0  0  0
    0.3491   -2.1033    2.4280 H   0  0  0  0  0  0  0  0  0  0  0  0
    1.0840   -0.4901    2.6928 H   0  0  0  0  0  0  0  0  0  0  0  0
    2.7821   -2.3543    2.6867 H   0  0  0  0  0  0  0  0  0  0  0  0
    3.0887   -1.1630    1.3736 H   0  0  0  0  0  0  0  0  0  0  0  0
   -2.1735   -1.0629    0.5194 H   0  0  0  0  0  0  0  0  0  0  0  0
   -3.9941   -2.1553   -0.2549 H   0  0  0  0  0  0  0  0  0  0  0  0
   -3.9690   -2.2125   -2.0520 H   0  0  0  0  0  0  0  0  0  0  0  0
   -5.1232   -1.1193   -1.1923 H   0  0  0  0  0  0  0  0  0  0  0  0
   -2.3050    1.1707   -2.5609 H   0  0  0  0  0  0  0  0  0  0  0  0
   -4.1115    0.9952   -2.5151 H   0  0  0  0  0  0  0  0  0  0  0  0
   -3.0600   -0.1920   -3.3715 H   0  0  0  0  0  0  0  0  0  0  0  0
    2.8123    3.6467    0.8547 H   0  0  0  0  0  0  0  0  0  0  0  0
    2.3344    5.9786    0.2232 H   0  0  0  0  0  0  0  0  0  0  0  0
    0.1105    6.5990   -0.6721 H   0  0  0  0  0  0  0  0  0  0  0  0
   -1.6409    4.8870   -0.9461 H   0  0  0  0  0  0  0  0  0  0  0  0
  1 24  1  0  0  0  0
  1 25  1  0  0  0  0
  1 26  1  0  0  0  0
  2  1  1  0  0  0  0
  2 27  1  1  0  0  0
  3  2  1  0  0  0  0
  3 28  1  0  0  0  0
  3 29  1  0  0  0  0
  4  3  1  0  0  0  0
  4 30  1  0  0  0  0
  4 31  1  0  0  0  0
  5  4  1  0  0  0  0
  6  5  1  0  0  0  0
  6 32  1  0  0  0  0
  6 33  1  0  0  0  0
  7  6  1  0  0  0  0
  7  2  1  0  0  0  0
  7 34  1  0  0  0  0
  7 35  1  0  0  0  0
  8  5  1  0  0  0  0
  9  8  2  0  0  0  0
 10  9  1  0  0  0  0
 10 36  1  0  0  0  0
 11 10  2  0  0  0  0
 12 11  1  0  0  0  0
 12 37  1  0  0  0  0
 12 38  1  0  0  0  0
 12 39  1  0  0  0  0
 13 11  1  0  0  0  0
 13 40  1  0  0  0  0
 13 41  1  0  0  0  0
 13 42  1  0  0  0  0
 14  9  1  0  0  0  0
 15 14  2  0  0  0  0
 16 14  1  0  0  0  0
 17 16  2  0  0  0  0
 18 17  1  0  0  0  0
 18 43  1  0  0  0  0
 19 18  2  0  0  0  0
 19 44  1  0  0  0  0
 20 19  1  0  0  0  0
 20 45  1  0  0  0  0
 21 20  2  0  0  0  0
 21 16  1  0  0  0  0
 21 46  1  0  0  0  0
 22 17  1  0  0  0  0
 22  8  1  0  0  0  0
 23 22  2  0  0  0  0
M  CHG  1   2   1
M  END
>  <MOL Chiral Flag>
0

>  <energy>
199.42879872627358

$$$$
