>308.sdf
 OpenBabel10062212313D

 48 49  0  0  0  0  0  0  0  0999 V2000
   -0.1910   -5.4701    1.7410 C   0  0  0  0  0  0  0  0  0  0  0  0
    0.3189   -4.5353    0.8623 O   0  0  0  0  0  0  0  0  0  0  0  0
   -0.3315   -3.4274    0.4052 C   0  0  0  0  0  0  0  0  0  0  0  0
   -1.6353   -3.1303    0.8333 C   0  0  0  0  0  0  0  0  0  0  0  0
   -2.3026   -1.9864    0.3938 C   0  0  0  0  0  0  0  0  0  0  0  0
   -3.5561   -1.7546    0.8373 O   0  0  0  0  0  0  0  0  0  0  0  0
   -1.6719   -1.1047   -0.5171 C   0  0  0  0  0  0  0  0  0  0  0  0
   -2.3386    0.1560   -1.0761 C   0  0  0  0  0  0  0  0  0  0  0  0
   -3.6954    0.5259   -0.5141 C   0  0  0  0  0  0  0  0  0  0  0  0
   -4.8317    0.6116   -1.2463 C   0  0  0  0  0  0  0  0  0  0  0  0
   -4.8549    0.3324   -2.7281 C   0  0  0  0  0  0  0  0  0  0  0  0
   -6.1256    0.9929   -0.5744 C   0  0  0  0  0  0  0  0  0  0  0  0
   -0.3641   -1.3997   -0.9714 C   0  0  0  0  0  0  0  0  0  0  0  0
    0.1674   -0.5799   -1.9096 O   0  0  0  0  0  0  0  0  0  0  0  0
    0.3322   -2.5540   -0.4929 C   0  0  0  0  0  0  0  0  0  0  0  0
    1.7508   -2.8771   -0.8939 C   0  0  0  0  0  0  0  0  0  0  0  0
    2.1193   -4.0437   -0.8913 O   0  0  0  0  0  0  0  0  0  0  0  0
    2.7615   -1.8148   -1.1704 C   0  0  0  0  0  0  0  0  0  0  0  0
    4.0081   -2.1173   -1.5896 C   0  0  0  0  0  0  0  0  0  0  0  0
    5.0745   -1.1101   -1.8697 C   0  0  0  0  0  0  0  0  0  0  0  0
    6.3292   -1.5754   -2.3026 C   0  0  0  0  0  0  0  0  0  0  0  0
    7.3651   -0.6797   -2.5815 C   0  0  0  0  0  0  0  0  0  0  0  0
    7.1665    0.6946   -2.4332 C   0  0  0  0  0  0  0  0  0  0  0  0
    8.1749    1.5473   -2.7063 O   0  0  0  0  0  0  0  0  0  0  0  0
    5.9221    1.1730   -2.0028 C   0  0  0  0  0  0  0  0  0  0  0  0
    4.8813    0.2819   -1.7221 C   0  0  0  0  0  0  0  0  0  0  0  0
   -1.0931   -5.9532    1.3087 H   0  0  0  0  0  0  0  0  0  0  0  0
   -0.4367   -4.9920    2.7131 H   0  0  0  0  0  0  0  0  0  0  0  0
    0.5747   -6.2526    1.9190 H   0  0  0  0  0  0  0  0  0  0  0  0
   -2.1448   -3.7883    1.5241 H   0  0  0  0  0  0  0  0  0  0  0  0
   -4.0047   -2.3502    1.4548 H   0  0  0  0  0  0  0  0  0  0  0  0
   -1.6760    1.0211   -0.8590 H   0  0  0  0  0  0  0  0  0  0  0  0
   -2.3746    0.0383   -2.1772 H   0  0  0  0  0  0  0  0  0  0  0  0
   -3.7403    0.7411    0.5506 H   0  0  0  0  0  0  0  0  0  0  0  0
   -4.1901    1.0441   -3.2617 H   0  0  0  0  0  0  0  0  0  0  0  0
   -5.8807    0.4517   -3.1370 H   0  0  0  0  0  0  0  0  0  0  0  0
   -4.5257   -0.7101   -2.9238 H   0  0  0  0  0  0  0  0  0  0  0  0
   -6.5234    1.9201   -1.0377 H   0  0  0  0  0  0  0  0  0  0  0  0
   -6.0002    1.1746    0.5146 H   0  0  0  0  0  0  0  0  0  0  0  0
   -6.8654    0.1759   -0.7068 H   0  0  0  0  0  0  0  0  0  0  0  0
    0.9163   -0.8079   -2.4708 H   0  0  0  0  0  0  0  0  0  0  0  0
    2.4823   -0.7877   -0.9987 H   0  0  0  0  0  0  0  0  0  0  0  0
    4.2642   -3.1628   -1.7405 H   0  0  0  0  0  0  0  0  0  0  0  0
    6.5061   -2.6371   -2.4251 H   0  0  0  0  0  0  0  0  0  0  0  0
    8.3246   -1.0556   -2.9140 H   0  0  0  0  0  0  0  0  0  0  0  0
    8.0705    2.5052   -2.6144 H   0  0  0  0  0  0  0  0  0  0  0  0
    5.7599    2.2372   -1.8854 H   0  0  0  0  0  0  0  0  0  0  0  0
    3.9410    0.6946   -1.3944 H   0  0  0  0  0  0  0  0  0  0  0  0
  1 27  1  0  0  0  0
  1 28  1  0  0  0  0
  1 29  1  0  0  0  0
  2  1  1  0  0  0  0
  3  2  1  0  0  0  0
  4  3  2  0  0  0  0
  4 30  1  0  0  0  0
  5  4  1  0  0  0  0
  6  5  1  0  0  0  0
  6 31  1  0  0  0  0
  7  5  2  0  0  0  0
  8  7  1  0  0  0  0
  8 32  1  0  0  0  0
  8 33  1  0  0  0  0
  9  8  1  0  0  0  0
  9 34  1  0  0  0  0
 10  9  2  0  0  0  0
 11 10  1  0  0  0  0
 11 35  1  0  0  0  0
 11 36  1  0  0  0  0
 11 37  1  0  0  0  0
 12 10  1  0  0  0  0
 12 38  1  0  0  0  0
 12 39  1  0  0  0  0
 12 40  1  0  0  0  0
 13  7  1  0  0  0  0
 14 13  1  0  0  0  0
 14 41  1  0  0  0  0
 15 13  2  0  0  0  0
 15  3  1  0  0  0  0
 16 15  1  0  0  0  0
 17 16  2  0  0  0  0
 18 16  1  0  0  0  0
 18 42  1  0  0  0  0
 19 18  2  0  0  0  0
 19 43  1  0  0  0  0
 20 19  1  0  0  0  0
 21 20  2  0  0  0  0
 21 44  1  0  0  0  0
 22 21  1  0  0  0  0
 22 45  1  0  0  0  0
 23 22  2  0  0  0  0
 24 23  1  0  0  0  0
 24 46  1  0  0  0  0
 25 23  1  0  0  0  0
 25 47  1  0  0  0  0
 26 25  2  0  0  0  0
 26 20  1  0  0  0  0
 26 48  1  0  0  0  0
M  END
>  <MOL Chiral Flag>
0

>  <energy>
72.808012946522751

$$$$
