>310.sdf
 OpenBabel10062212323D

 50 53  0  0  0  0  0  0  0  0999 V2000
    4.1757    5.1334    0.1553 F   0  0  0  0  0  0  0  0  0  0  0  0
    3.1561    4.9861    1.0783 C   0  0  0  0  0  0  0  0  0  0  0  0
    2.3465    6.1068    1.0367 F   0  0  0  0  0  0  0  0  0  0  0  0
    3.7167    4.8962    2.3410 F   0  0  0  0  0  0  0  0  0  0  0  0
    2.3396    3.7630    0.7351 C   0  0  0  0  0  0  0  0  0  0  0  0
    1.6967    3.6913   -0.5061 C   0  0  0  0  0  0  0  0  0  0  0  0
    0.9324    2.5710   -0.8528 C   0  0  0  0  0  0  0  0  0  0  0  0
    0.7982    1.4788    0.0461 C   0  0  0  0  0  0  0  0  0  0  0  0
    1.4503    1.5682    1.3011 C   0  0  0  0  0  0  0  0  0  0  0  0
    2.2081    2.6954    1.6350 C   0  0  0  0  0  0  0  0  0  0  0  0
    0.0117    0.3473   -0.3539 C   0  0  0  0  0  0  0  0  0  0  0  0
   -0.1114   -0.8139    0.4953 N   0  0  0  0  0  0  0  0  0  0  0  0
   -0.9488   -1.9841    0.2305 C   0  0  0  0  0  0  0  0  0  0  0  0
   -1.7615   -2.4479    1.4672 C   0  0  0  0  0  0  0  0  0  0  0  0
   -0.8474   -2.6908    2.6759 C   0  0  0  0  0  0  0  0  0  0  0  0
   -1.4613   -3.4276    3.7785 N   0  0  0  0  0  0  0  0  0  0  0  0
   -1.6890   -2.8030    5.0609 C   0  0  2  0  0  0  0  0  0  0  0  0
   -1.9376   -4.1326    6.3033 S   0  0  0  0  0  0  0  0  0  0  0  0
   -1.9293   -5.4456    5.0255 C   0  0  0  0  0  0  0  0  0  0  0  0
   -1.6108   -4.7691    3.7424 C   0  0  0  0  0  0  0  0  0  0  0  0
   -1.4164   -5.4117    2.7202 O   0  0  0  0  0  0  0  0  0  0  0  0
   -2.8660   -1.8112    5.0233 C   0  0  0  0  0  0  0  0  0  0  0  0
   -2.6104   -0.4120    5.0646 C   0  0  0  0  0  0  0  0  0  0  0  0
   -0.9770    0.2501    5.0957 Cl  0  0  0  0  0  0  0  0  0  0  0  0
   -3.6708    0.5024    5.0568 C   0  0  0  0  0  0  0  0  0  0  0  0
   -4.9885    0.0616    5.0285 C   0  0  0  0  0  0  0  0  0  0  0  0
   -5.2658   -1.2972    4.9824 C   0  0  0  0  0  0  0  0  0  0  0  0
   -4.2319   -2.2388    4.9620 C   0  0  0  0  0  0  0  0  0  0  0  0
   -4.7368   -3.9208    4.8835 Cl  0  0  0  0  0  0  0  0  0  0  0  0
   -0.5953    0.3842   -1.6301 C   0  0  0  0  0  0  0  0  0  0  0  0
   -0.4260    1.4880   -2.4624 C   0  0  0  0  0  0  0  0  0  0  0  0
    0.3235    2.5413   -2.0641 N   0  0  0  0  0  0  0  0  0  0  0  0
    1.7908    4.5123   -1.2082 H   0  0  0  0  0  0  0  0  0  0  0  0
    1.3882    0.7921    2.0434 H   0  0  0  0  0  0  0  0  0  0  0  0
    2.6921    2.7293    2.6028 H   0  0  0  0  0  0  0  0  0  0  0  0
    0.5394   -0.9056    1.2791 H   0  0  0  0  0  0  0  0  0  0  0  0
   -1.6628   -1.8385   -0.5959 H   0  0  0  0  0  0  0  0  0  0  0  0
   -0.2730   -2.8204   -0.0517 H   0  0  0  0  0  0  0  0  0  0  0  0
   -2.5400   -1.7031    1.7415 H   0  0  0  0  0  0  0  0  0  0  0  0
   -2.2683   -3.3942    1.1822 H   0  0  0  0  0  0  0  0  0  0  0  0
   -0.4999   -1.7022    3.0381 H   0  0  0  0  0  0  0  0  0  0  0  0
    0.0607   -3.2527    2.3612 H   0  0  0  0  0  0  0  0  0  0  0  0
   -0.7352   -2.3177    5.3471 H   0  0  0  0  0  0  0  0  0  0  0  0
   -2.9034   -5.9708    4.9575 H   0  0  0  0  0  0  0  0  0  0  0  0
   -1.1139   -6.1629    5.2552 H   0  0  0  0  0  0  0  0  0  0  0  0
   -3.4704    1.5658    5.0772 H   0  0  0  0  0  0  0  0  0  0  0  0
   -5.8014    0.7767    5.0373 H   0  0  0  0  0  0  0  0  0  0  0  0
   -6.2982   -1.6265    4.9623 H   0  0  0  0  0  0  0  0  0  0  0  0
   -1.1808   -0.4304   -2.0159 H   0  0  0  0  0  0  0  0  0  0  0  0
   -0.8861    1.5006   -3.4416 H   0  0  0  0  0  0  0  0  0  0  0  0
  2  1  1  0  0  0  0
  3  2  1  0  0  0  0
  4  2  1  0  0  0  0
  5  2  1  0  0  0  0
  6  5  2  0  0  0  0
  6 33  1  0  0  0  0
  7  6  1  0  0  0  0
  8  7  2  0  0  0  0
  9  8  1  0  0  0  0
  9 34  1  0  0  0  0
 10  9  2  0  0  0  0
 10  5  1  0  0  0  0
 10 35  1  0  0  0  0
 11  8  1  0  0  0  0
 12 11  1  0  0  0  0
 12 36  1  0  0  0  0
 13 12  1  0  0  0  0
 13 37  1  0  0  0  0
 13 38  1  0  0  0  0
 14 13  1  0  0  0  0
 14 39  1  0  0  0  0
 14 40  1  0  0  0  0
 15 14  1  0  0  0  0
 15 41  1  0  0  0  0
 15 42  1  0  0  0  0
 16 15  1  0  0  0  0
 17 16  1  0  0  0  0
 17 43  1  1  0  0  0
 18 17  1  0  0  0  0
 19 18  1  0  0  0  0
 19 44  1  0  0  0  0
 19 45  1  0  0  0  0
 20 19  1  0  0  0  0
 20 16  1  0  0  0  0
 21 20  2  0  0  0  0
 22 17  1  0  0  0  0
 23 22  2  0  0  0  0
 24 23  1  0  0  0  0
 25 23  1  0  0  0  0
 25 46  1  0  0  0  0
 26 25  2  0  0  0  0
 26 47  1  0  0  0  0
 27 26  1  0  0  0  0
 27 48  1  0  0  0  0
 28 27  2  0  0  0  0
 28 22  1  0  0  0  0
 29 28  1  0  0  0  0
 30 11  2  0  0  0  0
 30 49  1  0  0  0  0
 31 30  1  0  0  0  0
 31 50  1  0  0  0  0
 32 31  2  0  0  0  0
 32  7  1  0  0  0  0
M  END
>  <MOL Chiral Flag>
0

>  <energy>
48.138744673892845

$$$$
