>312.sdf
 OpenBabel10062212343D

 80 83  0  0  0  0  0  0  0  0999 V2000
   -2.2154    1.0822    5.6243 C   0  0  0  0  0  0  0  0  0  0  0  0
   -1.7071    2.4720    5.2083 C   0  0  2  0  0  0  0  0  0  0  0  0
   -0.7099    2.3955    4.1923 O   0  0  0  0  0  0  0  0  0  0  0  0
    0.5602    1.9476    4.6611 C   0  0  1  0  0  0  0  0  0  0  0  0
    1.4924    2.1545    3.6237 O   0  0  0  0  0  0  0  0  0  0  0  0
    1.7692    1.0482    2.7795 C   0  0  2  0  0  0  0  0  0  0  0  0
    3.2655    0.7325    2.9435 C   0  0  1  0  0  0  0  0  0  0  0  0
    3.4737    0.0899    4.1759 O   0  0  0  0  0  0  0  0  0  0  0  0
    3.7756   -0.1432    1.7881 C   0  0  2  0  0  0  0  0  0  0  0  0
    5.1604   -0.3905    1.9824 O   0  0  0  0  0  0  0  0  0  0  0  0
    5.4356   -1.7041    2.4496 C   0  0  0  0  0  0  0  0  0  0  0  0
    6.3904   -1.6502    3.6483 C   0  0  0  0  0  0  0  0  0  0  0  0
    7.7664   -1.0571    3.4164 C   0  0  0  0  0  0  0  0  0  0  0  0
    8.2069   -0.5946    2.1595 C   0  0  0  0  0  0  0  0  0  0  0  0
    9.4916   -0.0612    2.0158 C   0  0  0  0  0  0  0  0  0  0  0  0
   10.3541    0.0186    3.1185 C   0  0  0  0  0  0  0  0  0  0  0  0
   11.5943    0.5326    2.9821 O   0  0  0  0  0  0  0  0  0  0  0  0
    9.9262   -0.4393    4.3703 C   0  0  0  0  0  0  0  0  0  0  0  0
   10.7566   -0.3628    5.4314 O   0  0  0  0  0  0  0  0  0  0  0  0
    8.6385   -0.9750    4.5146 C   0  0  0  0  0  0  0  0  0  0  0  0
    3.6296    0.5829    0.5756 O   0  0  0  0  0  0  0  0  0  0  0  0
    2.2586    0.6872    0.2328 C   0  0  2  0  0  0  0  0  0  0  0  0
    2.1266    1.3917   -1.1257 C   0  0  0  0  0  0  0  0  0  0  0  0
    2.8003    0.6720   -2.1231 O   0  0  0  0  0  0  0  0  0  0  0  0
    1.4861    1.4977    1.3287 C   0  0  1  0  0  0  0  0  0  0  0  0
    0.1160    1.5916    1.0835 O   0  0  0  0  0  0  0  0  0  0  0  0
   -0.7937    0.5895    0.8511 C   0  0  0  0  0  0  0  0  0  0  0  0
   -1.9222    0.9074    0.5112 O   0  0  0  0  0  0  0  0  0  0  0  0
   -0.4219   -0.8600    0.8567 C   0  0  0  0  0  0  0  0  0  0  0  0
   -1.1521   -1.7785    0.1874 C   0  0  0  0  0  0  0  0  0  0  0  0
   -0.7396   -3.2062    0.0023 C   0  0  0  0  0  0  0  0  0  0  0  0
    0.4101   -3.7653    0.6038 C   0  0  0  0  0  0  0  0  0  0  0  0
    0.7779   -5.0865    0.3374 C   0  0  0  0  0  0  0  0  0  0  0  0
    0.0149   -5.8772   -0.5349 C   0  0  0  0  0  0  0  0  0  0  0  0
    0.3847   -7.1458   -0.8019 O   0  0  0  0  0  0  0  0  0  0  0  0
   -1.1336   -5.3328   -1.1336 C   0  0  0  0  0  0  0  0  0  0  0  0
   -1.8846   -6.0668   -1.9869 O   0  0  0  0  0  0  0  0  0  0  0  0
   -1.5058   -4.0121   -0.8622 C   0  0  0  0  0  0  0  0  0  0  0  0
    1.0758    2.8199    5.8388 C   0  0  2  0  0  0  0  0  0  0  0  0
    2.3253    2.3774    6.3069 O   0  0  0  0  0  0  0  0  0  0  0  0
    0.0560    2.9209    6.9809 C   0  0  2  0  0  0  0  0  0  0  0  0
   -0.1049    1.6825    7.6254 O   0  0  0  0  0  0  0  0  0  0  0  0
   -1.2757    3.3881    6.3803 C   0  0  1  0  0  0  0  0  0  0  0  0
   -1.1237    4.6955    5.8776 O   0  0  0  0  0  0  0  0  0  0  0  0
   -1.4315    0.4447    6.0716 H   0  0  0  0  0  0  0  0  0  0  0  0
   -2.6103    0.5538    4.7318 H   0  0  0  0  0  0  0  0  0  0  0  0
   -3.0414    1.1914    6.3596 H   0  0  0  0  0  0  0  0  0  0  0  0
   -2.5938    2.9695    4.7568 H   0  0  0  0  0  0  0  0  0  0  0  0
    0.5120    0.8817    4.9793 H   0  0  0  0  0  0  0  0  0  0  0  0
    1.1895    0.1266    3.0039 H   0  0  0  0  0  0  0  0  0  0  0  0
    3.8495    1.6851    2.8843 H   0  0  0  0  0  0  0  0  0  0  0  0
    3.9589    0.7237    4.7652 H   0  0  0  0  0  0  0  0  0  0  0  0
    3.1831   -1.0908    1.7233 H   0  0  0  0  0  0  0  0  0  0  0  0
    4.5368   -2.2496    2.8199 H   0  0  0  0  0  0  0  0  0  0  0  0
    5.8747   -2.3073    1.6265 H   0  0  0  0  0  0  0  0  0  0  0  0
    5.8918   -1.0671    4.4519 H   0  0  0  0  0  0  0  0  0  0  0  0
    6.5323   -2.6898    4.0168 H   0  0  0  0  0  0  0  0  0  0  0  0
    7.5718   -0.6443    1.2874 H   0  0  0  0  0  0  0  0  0  0  0  0
    9.8177    0.2897    1.0448 H   0  0  0  0  0  0  0  0  0  0  0  0
   11.9212    0.8565    2.1307 H   0  0  0  0  0  0  0  0  0  0  0  0
   10.4904   -0.6702    6.3099 H   0  0  0  0  0  0  0  0  0  0  0  0
    8.3130   -1.3285    5.4862 H   0  0  0  0  0  0  0  0  0  0  0  0
    1.8829   -0.3320    0.0558 H   0  0  0  0  0  0  0  0  0  0  0  0
    1.0553    1.4554   -1.4140 H   0  0  0  0  0  0  0  0  0  0  0  0
    2.5093    2.4373   -1.0748 H   0  0  0  0  0  0  0  0  0  0  0  0
    3.7499    0.9590   -2.0918 H   0  0  0  0  0  0  0  0  0  0  0  0
    1.9120    2.5252    1.2685 H   0  0  0  0  0  0  0  0  0  0  0  0
    0.4891   -1.1587    1.3373 H   0  0  0  0  0  0  0  0  0  0  0  0
   -2.0515   -1.4504   -0.3267 H   0  0  0  0  0  0  0  0  0  0  0  0
    1.0383   -3.1954    1.2698 H   0  0  0  0  0  0  0  0  0  0  0  0
    1.6665   -5.4972    0.8012 H   0  0  0  0  0  0  0  0  0  0  0  0
    1.1790   -7.5407   -0.4138 H   0  0  0  0  0  0  0  0  0  0  0  0
   -1.6606   -6.9776   -2.2214 H   0  0  0  0  0  0  0  0  0  0  0  0
   -2.3852   -3.6033   -1.3453 H   0  0  0  0  0  0  0  0  0  0  0  0
    1.2208    3.8489    5.4391 H   0  0  0  0  0  0  0  0  0  0  0  0
    2.2260    1.4287    6.5815 H   0  0  0  0  0  0  0  0  0  0  0  0
    0.3937    3.6856    7.7231 H   0  0  0  0  0  0  0  0  0  0  0  0
    0.4434    1.7029    8.4532 H   0  0  0  0  0  0  0  0  0  0  0  0
   -2.0720    3.3835    7.1633 H   0  0  0  0  0  0  0  0  0  0  0  0
   -1.4737    5.3248    6.5612 H   0  0  0  0  0  0  0  0  0  0  0  0
  1 45  1  0  0  0  0
  1 46  1  0  0  0  0
  1 47  1  0  0  0  0
  2  1  1  0  0  0  0
  2 48  1  6  0  0  0
  3  2  1  0  0  0  0
  4  3  1  0  0  0  0
  4 49  1  1  0  0  0
  5  4  1  0  0  0  0
  6  5  1  0  0  0  0
  6 50  1  1  0  0  0
  7  6  1  0  0  0  0
  7 51  1  6  0  0  0
  8  7  1  0  0  0  0
  8 52  1  0  0  0  0
  9  7  1  0  0  0  0
  9 53  1  6  0  0  0
 10  9  1  0  0  0  0
 11 10  1  0  0  0  0
 11 54  1  0  0  0  0
 11 55  1  0  0  0  0
 12 11  1  0  0  0  0
 12 56  1  0  0  0  0
 12 57  1  0  0  0  0
 13 12  1  0  0  0  0
 14 13  2  0  0  0  0
 14 58  1  0  0  0  0
 15 14  1  0  0  0  0
 15 59  1  0  0  0  0
 16 15  2  0  0  0  0
 17 16  1  0  0  0  0
 17 60  1  0  0  0  0
 18 16  1  0  0  0  0
 19 18  1  0  0  0  0
 19 61  1  0  0  0  0
 20 18  2  0  0  0  0
 20 13  1  0  0  0  0
 20 62  1  0  0  0  0
 21  9  1  0  0  0  0
 22 21  1  0  0  0  0
 22 63  1  6  0  0  0
 23 22  1  0  0  0  0
 23 64  1  0  0  0  0
 23 65  1  0  0  0  0
 24 23  1  0  0  0  0
 24 66  1  0  0  0  0
 25 22  1  0  0  0  0
 25  6  1  0  0  0  0
 25 67  1  6  0  0  0
 26 25  1  0  0  0  0
 27 26  1  0  0  0  0
 28 27  2  0  0  0  0
 29 27  1  0  0  0  0
 29 68  1  0  0  0  0
 30 29  2  0  0  0  0
 30 69  1  0  0  0  0
 31 30  1  0  0  0  0
 32 31  2  0  0  0  0
 32 70  1  0  0  0  0
 33 32  1  0  0  0  0
 33 71  1  0  0  0  0
 34 33  2  0  0  0  0
 35 34  1  0  0  0  0
 35 72  1  0  0  0  0
 36 34  1  0  0  0  0
 37 36  1  0  0  0  0
 37 73  1  0  0  0  0
 38 36  2  0  0  0  0
 38 31  1  0  0  0  0
 38 74  1  0  0  0  0
 39  4  1  0  0  0  0
 39 75  1  6  0  0  0
 40 39  1  0  0  0  0
 40 76  1  0  0  0  0
 41 39  1  0  0  0  0
 41 77  1  1  0  0  0
 42 41  1  0  0  0  0
 42 78  1  0  0  0  0
 43 41  1  0  0  0  0
 43  2  1  0  0  0  0
 43 79  1  1  0  0  0
 44 43  1  0  0  0  0
 44 80  1  0  0  0  0
M  END
>  <MOL Chiral Flag>
0

>  <energy>
254.31887633009751

$$$$
