>313_2.sdf
 OpenBabel10102214263D

 36 39  0  0  0  0  0  0  0  0999 V2000
    1.3974   -6.3453   -0.7277 Cl  0  0  0  0  0  0  0  0  0  0  0  0
    0.8643   -4.6746   -0.7629 C   0  0  0  0  0  0  0  0  0  0  0  0
    0.9117   -3.9504   -1.9570 C   0  0  0  0  0  0  0  0  0  0  0  0
    0.4883   -2.6188   -1.9877 C   0  0  0  0  0  0  0  0  0  0  0  0
    0.0118   -1.9948   -0.8200 C   0  0  0  0  0  0  0  0  0  0  0  0
   -0.0346   -2.7352    0.3788 C   0  0  0  0  0  0  0  0  0  0  0  0
    0.3912   -4.0666    0.4031 C   0  0  0  0  0  0  0  0  0  0  0  0
   -0.4408   -0.5456   -0.8727 C   0  0  1  0  0  0  0  0  0  0  0  0
   -1.0054   -0.1351    0.3261 O   0  0  0  0  0  0  0  0  0  0  0  0
   -1.4201    1.1435    0.5085 C   0  0  0  0  0  0  0  0  0  0  0  0
   -2.4075    1.4302    1.4566 C   0  0  0  0  0  0  0  0  0  0  0  0
   -2.8395    2.7474    1.6407 C   0  0  0  0  0  0  0  0  0  0  0  0
   -2.2797    3.7822    0.8842 C   0  0  0  0  0  0  0  0  0  0  0  0
   -1.2810    3.5052   -0.0551 C   0  0  0  0  0  0  0  0  0  0  0  0
   -0.8471    2.1834   -0.2479 C   0  0  0  0  0  0  0  0  0  0  0  0
    0.2499    1.8489   -1.1868 C   0  0  0  0  0  0  0  0  0  0  0  0
    0.8788    2.7341   -1.7477 O   0  0  0  0  0  0  0  0  0  0  0  0
    0.7020    0.4117   -1.3092 C   0  0  1  0  0  0  0  0  0  0  0  0
    1.9217    0.2076   -0.5172 N   0  0  0  0  0  0  0  0  0  0  0  0
    2.0779    0.3664    0.8092 C   0  0  0  0  0  0  0  0  0  0  0  0
    3.3827    0.0634    1.1240 C   0  0  0  0  0  0  0  0  0  0  0  0
    4.0382   -0.2832   -0.0029 N   0  0  0  0  0  0  0  0  0  0  0  0
    3.1212   -0.1857   -0.9882 C   0  0  0  0  0  0  0  0  0  0  0  0
    1.2763   -4.4189   -2.8623 H   0  0  0  0  0  0  0  0  0  0  0  0
    0.5297   -2.0743   -2.9222 H   0  0  0  0  0  0  0  0  0  0  0  0
   -0.3941   -2.2871    1.2957 H   0  0  0  0  0  0  0  0  0  0  0  0
    0.3535   -4.6254    1.3296 H   0  0  0  0  0  0  0  0  0  0  0  0
   -1.2475   -0.4713   -1.6379 H   0  0  0  0  0  0  0  0  0  0  0  0
   -2.8442    0.6325    2.0439 H   0  0  0  0  0  0  0  0  0  0  0  0
   -3.6076    2.9667    2.3709 H   0  0  0  0  0  0  0  0  0  0  0  0
   -2.6138    4.8009    1.0326 H   0  0  0  0  0  0  0  0  0  0  0  0
   -0.8439    4.3175   -0.6221 H   0  0  0  0  0  0  0  0  0  0  0  0
    0.9149    0.1966   -2.3799 H   0  0  0  0  0  0  0  0  0  0  0  0
    1.3044    0.6787    1.4977 H   0  0  0  0  0  0  0  0  0  0  0  0
    3.8302    0.0921    2.1083 H   0  0  0  0  0  0  0  0  0  0  0  0
    3.3284   -0.4006   -2.0285 H   0  0  0  0  0  0  0  0  0  0  0  0
  2  1  1  0  0  0  0
  3  2  2  0  0  0  0
  3 24  1  0  0  0  0
  4  3  1  0  0  0  0
  4 25  1  0  0  0  0
  5  4  2  0  0  0  0
  6  5  1  0  0  0  0
  6 26  1  0  0  0  0
  7  6  2  0  0  0  0
  7  2  1  0  0  0  0
  7 27  1  0  0  0  0
  8  5  1  0  0  0  0
  8 28  1  6  0  0  0
  9  8  1  0  0  0  0
 10  9  1  0  0  0  0
 11 10  2  0  0  0  0
 11 29  1  0  0  0  0
 12 11  1  0  0  0  0
 12 30  1  0  0  0  0
 13 12  2  0  0  0  0
 13 31  1  0  0  0  0
 14 13  1  0  0  0  0
 14 32  1  0  0  0  0
 15 14  2  0  0  0  0
 15 10  1  0  0  0  0
 16 15  1  0  0  0  0
 17 16  2  0  0  0  0
 18 16  1  0  0  0  0
 18  8  1  0  0  0  0
 18 33  1  6  0  0  0
 19 18  1  0  0  0  0
 20 19  1  0  0  0  0
 20 34  1  0  0  0  0
 21 20  2  0  0  0  0
 21 35  1  0  0  0  0
 22 21  1  0  0  0  0
 23 22  2  0  0  0  0
 23 19  1  0  0  0  0
 23 36  1  0  0  0  0
M  END
>  <MOL Chiral Flag>
0

>  <energy>
62.235690940479415

$$$$
