>318.sdf
 OpenBabel10062212373D

 53 56  0  0  0  0  0  0  0  0999 V2000
    3.4169    5.1371    1.2556 C   0  0  0  0  0  0  0  0  0  0  0  0
    4.4288    4.5864    0.4930 O   0  0  0  0  0  0  0  0  0  0  0  0
    4.4200    3.3273   -0.0225 C   0  0  0  0  0  0  0  0  0  0  0  0
    5.5120    2.9029   -0.7839 C   0  0  0  0  0  0  0  0  0  0  0  0
    5.5382    1.6174   -1.3370 C   0  0  0  0  0  0  0  0  0  0  0  0
    4.4704    0.7189   -1.1388 C   0  0  0  0  0  0  0  0  0  0  0  0
    4.5408   -0.5782   -1.7661 N   0  0  0  0  0  0  0  0  0  0  0  0
    3.5772   -1.6374   -1.6629 C   0  0  0  0  0  0  0  0  0  0  0  0
    2.6293   -1.6485   -0.6913 N   0  0  0  0  0  0  0  0  0  0  0  0
    1.6600   -2.6017   -0.6298 C   0  0  0  0  0  0  0  0  0  0  0  0
    0.7063   -2.5430    0.4304 N   0  0  0  0  0  0  0  0  0  0  0  0
   -0.6674   -2.9612    0.3773 C   0  0  0  0  0  0  0  0  0  0  0  0
   -1.3060   -3.3545   -0.8154 C   0  0  0  0  0  0  0  0  0  0  0  0
   -2.6857   -3.6287   -0.8292 C   0  0  0  0  0  0  0  0  0  0  0  0
   -3.4593   -3.5324    0.3512 C   0  0  0  0  0  0  0  0  0  0  0  0
   -4.8826   -3.7628    0.3727 N   0  0  0  0  0  0  0  0  0  0  0  0
   -5.8705   -3.9893   -1.0824 S   0  0  0  0  0  0  0  0  0  0  0  0
   -5.1581   -5.0949   -1.8744 O   0  0  0  0  0  0  0  0  0  0  0  0
   -5.5688   -2.7664   -1.9622 O   0  0  0  0  0  0  0  0  0  0  0  0
   -7.6480   -4.3492   -1.0783 C   0  0  0  0  0  0  0  0  0  0  0  0
   -8.0833   -5.6823   -1.1316 C   0  0  0  0  0  0  0  0  0  0  0  0
   -9.4468   -5.9804   -1.2360 C   0  0  0  0  0  0  0  0  0  0  0  0
  -10.3889   -4.9493   -1.2868 C   0  0  0  0  0  0  0  0  0  0  0  0
  -12.0954   -5.3287   -1.4551 Cl  0  0  0  0  0  0  0  0  0  0  0  0
   -9.9669   -3.6167   -1.2196 C   0  0  0  0  0  0  0  0  0  0  0  0
   -8.5999   -3.3143   -1.1159 C   0  0  0  0  0  0  0  0  0  0  0  0
   -2.8067   -3.1717    1.5416 C   0  0  0  0  0  0  0  0  0  0  0  0
   -1.4366   -2.8821    1.5509 C   0  0  0  0  0  0  0  0  0  0  0  0
    1.6523   -3.6081   -1.5470 N   0  0  0  0  0  0  0  0  0  0  0  0
    2.6126   -3.6738   -2.5105 C   0  0  0  0  0  0  0  0  0  0  0  0
    3.5990   -2.6872   -2.5878 C   0  0  0  0  0  0  0  0  0  0  0  0
    3.3661    1.1603   -0.3712 C   0  0  0  0  0  0  0  0  0  0  0  0
    3.3458    2.4435    0.1794 C   0  0  0  0  0  0  0  0  0  0  0  0
    3.6939    6.1738    1.5359 H   0  0  0  0  0  0  0  0  0  0  0  0
    2.4701    5.1715    0.6746 H   0  0  0  0  0  0  0  0  0  0  0  0
    3.2717    4.5476    2.1863 H   0  0  0  0  0  0  0  0  0  0  0  0
    6.3439    3.5758   -0.9533 H   0  0  0  0  0  0  0  0  0  0  0  0
    6.3951    1.3216   -1.9296 H   0  0  0  0  0  0  0  0  0  0  0  0
    5.3247   -0.7306   -2.4203 H   0  0  0  0  0  0  0  0  0  0  0  0
    0.9932   -2.0104    1.2661 H   0  0  0  0  0  0  0  0  0  0  0  0
   -0.7665   -3.4101   -1.7474 H   0  0  0  0  0  0  0  0  0  0  0  0
   -3.1316   -3.8927   -1.7713 H   0  0  0  0  0  0  0  0  0  0  0  0
   -5.3827   -3.6768    1.2706 H   0  0  0  0  0  0  0  0  0  0  0  0
   -7.3643   -6.4898   -1.1166 H   0  0  0  0  0  0  0  0  0  0  0  0
   -9.7694   -7.0126   -1.2950 H   0  0  0  0  0  0  0  0  0  0  0  0
  -10.6977   -2.8179   -1.2658 H   0  0  0  0  0  0  0  0  0  0  0  0
   -8.2866   -2.2791   -1.0891 H   0  0  0  0  0  0  0  0  0  0  0  0
   -3.3668   -3.0840    2.4640 H   0  0  0  0  0  0  0  0  0  0  0  0
   -0.9710   -2.5731    2.4791 H   0  0  0  0  0  0  0  0  0  0  0  0
    2.6077   -4.4864   -3.2254 H   0  0  0  0  0  0  0  0  0  0  0  0
    4.3506   -2.7260   -3.3676 H   0  0  0  0  0  0  0  0  0  0  0  0
    2.5011    0.5573   -0.1922 H   0  0  0  0  0  0  0  0  0  0  0  0
    2.4814    2.7426    0.7563 H   0  0  0  0  0  0  0  0  0  0  0  0
  1 34  1  0  0  0  0
  1 35  1  0  0  0  0
  1 36  1  0  0  0  0
  2  1  1  0  0  0  0
  3  2  1  0  0  0  0
  4  3  2  0  0  0  0
  4 37  1  0  0  0  0
  5  4  1  0  0  0  0
  5 38  1  0  0  0  0
  6  5  2  0  0  0  0
  7  6  1  0  0  0  0
  7 39  1  0  0  0  0
  8  7  1  0  0  0  0
  9  8  2  0  0  0  0
 10  9  1  0  0  0  0
 11 10  1  0  0  0  0
 11 40  1  0  0  0  0
 12 11  1  0  0  0  0
 13 12  2  0  0  0  0
 13 41  1  0  0  0  0
 14 13  1  0  0  0  0
 14 42  1  0  0  0  0
 15 14  2  0  0  0  0
 16 15  1  0  0  0  0
 16 43  1  0  0  0  0
 17 16  1  0  0  0  0
 18 17  2  0  0  0  0
 19 17  2  0  0  0  0
 20 17  1  0  0  0  0
 21 20  2  0  0  0  0
 21 44  1  0  0  0  0
 22 21  1  0  0  0  0
 22 45  1  0  0  0  0
 23 22  2  0  0  0  0
 24 23  1  0  0  0  0
 25 23  1  0  0  0  0
 25 46  1  0  0  0  0
 26 25  2  0  0  0  0
 26 20  1  0  0  0  0
 26 47  1  0  0  0  0
 27 15  1  0  0  0  0
 27 48  1  0  0  0  0
 28 27  2  0  0  0  0
 28 12  1  0  0  0  0
 28 49  1  0  0  0  0
 29 10  2  0  0  0  0
 30 29  1  0  0  0  0
 30 50  1  0  0  0  0
 31 30  2  0  0  0  0
 31  8  1  0  0  0  0
 31 51  1  0  0  0  0
 32  6  1  0  0  0  0
 32 52  1  0  0  0  0
 33 32  2  0  0  0  0
 33  3  1  0  0  0  0
 33 53  1  0  0  0  0
M  END
>  <MOL Chiral Flag>
0

>  <energy>
-63.404797137831054

$$$$
