>32.sdf
 OpenBabel10052218023D

 47 49  0  0  0  0  0  0  0  0999 V2000
    3.1336    3.0146    2.1847 C   0  0  0  0  0  0  0  0  0  0  0  0
    3.5754    2.4196    0.8430 C   0  0  0  0  0  0  0  0  0  0  0  0
    3.0707    1.0538    0.6832 N   0  0  0  0  0  0  0  0  0  0  0  0
    3.5330    0.0219    1.6183 C   0  0  0  0  0  0  0  0  0  0  0  0
    4.3728   -1.0768    0.9361 C   0  0  0  0  0  0  0  0  0  0  0  0
    3.6208   -1.8934   -0.0160 N   0  3  0  0  0  0  0  0  0  0  0  0
    2.0371    0.7829   -0.2864 C   0  0  0  0  0  0  0  0  0  0  0  0
    0.9427   -0.0320    0.0702 C   0  0  0  0  0  0  0  0  0  0  0  0
   -0.1397   -0.2099   -0.7985 C   0  0  0  0  0  0  0  0  0  0  0  0
   -1.2674   -0.9629   -0.3484 N   0  0  0  0  0  0  0  0  0  0  0  0
   -2.6291   -0.5147   -0.4961 C   0  0  0  0  0  0  0  0  0  0  0  0
   -2.9119    0.8047   -0.9112 C   0  0  0  0  0  0  0  0  0  0  0  0
   -4.2233    1.2649   -0.9672 C   0  0  0  0  0  0  0  0  0  0  0  0
   -5.2484    0.4534   -0.6119 N   0  0  0  0  0  0  0  0  0  0  0  0
   -5.0414   -0.8202   -0.1996 C   0  0  0  0  0  0  0  0  0  0  0  0
   -3.7250   -1.3537   -0.1319 C   0  0  0  0  0  0  0  0  0  0  0  0
   -3.5601   -2.6899    0.2950 C   0  0  0  0  0  0  0  0  0  0  0  0
   -4.6707   -3.4611    0.6543 C   0  0  0  0  0  0  0  0  0  0  0  0
   -5.9556   -2.9185    0.5980 C   0  0  0  0  0  0  0  0  0  0  0  0
   -7.3401   -3.8904    1.0625 Cl  0  0  0  0  0  0  0  0  0  0  0  0
   -6.1399   -1.6049    0.1697 C   0  0  0  0  0  0  0  0  0  0  0  0
   -0.1027    0.3670   -2.0752 C   0  0  0  0  0  0  0  0  0  0  0  0
    0.9941    1.1318   -2.4684 C   0  0  0  0  0  0  0  0  0  0  0  0
    2.0595    1.3575   -1.5837 C   0  0  0  0  0  0  0  0  0  0  0  0
    3.1122    2.0985   -1.9917 O   0  0  0  0  0  0  0  0  0  0  0  0
    3.4904    4.0630    2.2634 H   0  0  0  0  0  0  0  0  0  0  0  0
    3.5345    2.4522    3.0503 H   0  0  0  0  0  0  0  0  0  0  0  0
    2.0232    3.0158    2.2450 H   0  0  0  0  0  0  0  0  0  0  0  0
    4.6819    2.4305    0.7488 H   0  0  0  0  0  0  0  0  0  0  0  0
    3.1513    3.1098    0.0890 H   0  0  0  0  0  0  0  0  0  0  0  0
    2.6969   -0.4112    2.2012 H   0  0  0  0  0  0  0  0  0  0  0  0
    4.2235    0.4706    2.3628 H   0  0  0  0  0  0  0  0  0  0  0  0
    4.7630   -1.7438    1.7372 H   0  0  0  0  0  0  0  0  0  0  0  0
    5.2463   -0.6141    0.4252 H   0  0  0  0  0  0  0  0  0  0  0  0
    2.7751   -2.3014    0.4435 H   0  0  0  0  0  0  0  0  0  0  0  0
    4.2347   -2.6750   -0.3413 H   0  0  0  0  0  0  0  0  0  0  0  0
    3.3540   -1.3360   -0.8561 H   0  0  0  0  0  0  0  0  0  0  0  0
    0.8818   -0.4707    1.0533 H   0  0  0  0  0  0  0  0  0  0  0  0
   -1.0798   -1.7013    0.3399 H   0  0  0  0  0  0  0  0  0  0  0  0
   -2.1302    1.5048   -1.1598 H   0  0  0  0  0  0  0  0  0  0  0  0
   -4.4254    2.2819   -1.2735 H   0  0  0  0  0  0  0  0  0  0  0  0
   -2.5909   -3.1594    0.3499 H   0  0  0  0  0  0  0  0  0  0  0  0
   -4.5302   -4.4837    0.9796 H   0  0  0  0  0  0  0  0  0  0  0  0
   -7.1390   -1.1871    0.1264 H   0  0  0  0  0  0  0  0  0  0  0  0
   -0.9204    0.2181   -2.7697 H   0  0  0  0  0  0  0  0  0  0  0  0
    1.0119    1.5621   -3.4619 H   0  0  0  0  0  0  0  0  0  0  0  0
    3.1515    2.4912   -2.8754 H   0  0  0  0  0  0  0  0  0  0  0  0
  1 26  1  0  0  0  0
  1 27  1  0  0  0  0
  1 28  1  0  0  0  0
  2  1  1  0  0  0  0
  2 29  1  0  0  0  0
  2 30  1  0  0  0  0
  3  2  1  0  0  0  0
  4  3  1  0  0  0  0
  4 31  1  0  0  0  0
  4 32  1  0  0  0  0
  5  4  1  0  0  0  0
  5 33  1  0  0  0  0
  5 34  1  0  0  0  0
  6  5  1  0  0  0  0
  6 35  1  0  0  0  0
  6 36  1  0  0  0  0
  6 37  1  0  0  0  0
  7  3  1  0  0  0  0
  8  7  2  0  0  0  0
  8 38  1  0  0  0  0
  9  8  1  0  0  0  0
 10  9  1  0  0  0  0
 10 39  1  0  0  0  0
 11 10  1  0  0  0  0
 12 11  2  0  0  0  0
 12 40  1  0  0  0  0
 13 12  1  0  0  0  0
 13 41  1  0  0  0  0
 14 13  2  0  0  0  0
 15 14  1  0  0  0  0
 16 15  2  0  0  0  0
 16 11  1  0  0  0  0
 17 16  1  0  0  0  0
 17 42  1  0  0  0  0
 18 17  2  0  0  0  0
 18 43  1  0  0  0  0
 19 18  1  0  0  0  0
 20 19  1  0  0  0  0
 21 19  2  0  0  0  0
 21 15  1  0  0  0  0
 21 44  1  0  0  0  0
 22  9  2  0  0  0  0
 22 45  1  0  0  0  0
 23 22  1  0  0  0  0
 23 46  1  0  0  0  0
 24 23  2  0  0  0  0
 24  7  1  0  0  0  0
 25 24  1  0  0  0  0
 25 47  1  0  0  0  0
M  CHG  1   6   1
M  END
>  <MOL Chiral Flag>
0

>  <energy>
84.800238590593978

$$$$
