>321.sdf
 OpenBabel10062212383D

 47 49  0  0  0  0  0  0  0  0999 V2000
    4.0717   -0.6563   -2.6294 C   0  0  0  0  0  0  0  0  0  0  0  0
    4.5614    0.1007   -1.3985 C   0  0  0  0  0  0  0  0  0  0  0  0
    3.8146   -0.2742   -0.2004 N   0  0  0  0  0  0  0  0  0  0  0  0
    4.5223   -0.1190    1.0679 C   0  0  0  0  0  0  0  0  0  0  0  0
    4.9779   -1.4750    1.5855 C   0  0  0  0  0  0  0  0  0  0  0  0
    2.4182    0.0341   -0.1705 C   0  0  0  0  0  0  0  0  0  0  0  0
    1.9979    1.3701   -0.1275 C   0  0  0  0  0  0  0  0  0  0  0  0
    0.6433    1.6825   -0.0126 C   0  0  0  0  0  0  0  0  0  0  0  0
   -0.3255    0.6679    0.0489 C   0  0  0  0  0  0  0  0  0  0  0  0
    0.0900   -0.6774   -0.0218 C   0  0  0  0  0  0  0  0  0  0  0  0
    1.4590   -0.9911   -0.1194 C   0  0  0  0  0  0  0  0  0  0  0  0
   -1.7856    1.0573    0.2185 C   0  0  0  0  0  0  0  0  0  0  0  0
   -2.4269    0.3667    1.3394 N   0  0  0  0  0  0  0  0  0  0  0  0
   -2.1678    0.6866    2.7246 C   0  0  0  0  0  0  0  0  0  0  0  0
   -3.6061   -0.2453    0.8800 C   0  0  0  0  0  0  0  0  0  0  0  0
   -3.7265   -0.0513   -0.4542 C   0  0  0  0  0  0  0  0  0  0  0  0
   -4.8487   -0.4876   -1.1630 C   0  0  0  0  0  0  0  0  0  0  0  0
   -5.8608   -1.1604   -0.4539 C   0  0  0  0  0  0  0  0  0  0  0  0
   -5.7308   -1.3735    0.9358 C   0  0  0  0  0  0  0  0  0  0  0  0
   -4.5929   -0.9080    1.6189 C   0  0  0  0  0  0  0  0  0  0  0  0
   -2.6189    0.6875   -0.9246 N   0  0  0  0  0  0  0  0  0  0  0  0
   -2.6791    1.5030   -2.1183 C   0  0  0  0  0  0  0  0  0  0  0  0
    4.1832   -1.7498   -2.4670 H   0  0  0  0  0  0  0  0  0  0  0  0
    4.6864   -0.3657   -3.5084 H   0  0  0  0  0  0  0  0  0  0  0  0
    3.0098   -0.4205   -2.8449 H   0  0  0  0  0  0  0  0  0  0  0  0
    4.5005    1.1980   -1.5655 H   0  0  0  0  0  0  0  0  0  0  0  0
    5.6354   -0.1660   -1.2730 H   0  0  0  0  0  0  0  0  0  0  0  0
    3.8723    0.3574    1.8366 H   0  0  0  0  0  0  0  0  0  0  0  0
    5.4136    0.5383    0.9520 H   0  0  0  0  0  0  0  0  0  0  0  0
    5.6684   -1.9494    0.8564 H   0  0  0  0  0  0  0  0  0  0  0  0
    4.1015   -2.1367    1.7480 H   0  0  0  0  0  0  0  0  0  0  0  0
    5.5130   -1.3420    2.5500 H   0  0  0  0  0  0  0  0  0  0  0  0
    2.7268    2.1695   -0.1570 H   0  0  0  0  0  0  0  0  0  0  0  0
    0.3482    2.7223    0.0371 H   0  0  0  0  0  0  0  0  0  0  0  0
   -0.6375   -1.4783    0.0285 H   0  0  0  0  0  0  0  0  0  0  0  0
    1.7744   -2.0274   -0.1426 H   0  0  0  0  0  0  0  0  0  0  0  0
   -1.8805    2.1551    0.3746 H   0  0  0  0  0  0  0  0  0  0  0  0
   -2.3730   -0.1899    3.3730 H   0  0  0  0  0  0  0  0  0  0  0  0
   -2.8256    1.5293    3.0280 H   0  0  0  0  0  0  0  0  0  0  0  0
   -1.1098    0.9919    2.8592 H   0  0  0  0  0  0  0  0  0  0  0  0
   -4.9519   -0.3092   -2.2244 H   0  0  0  0  0  0  0  0  0  0  0  0
   -6.7456   -1.5057   -0.9729 H   0  0  0  0  0  0  0  0  0  0  0  0
   -6.5162   -1.8836    1.4789 H   0  0  0  0  0  0  0  0  0  0  0  0
   -4.4971   -1.0507    2.6865 H   0  0  0  0  0  0  0  0  0  0  0  0
   -1.6607    1.8410   -2.4008 H   0  0  0  0  0  0  0  0  0  0  0  0
   -3.3065    2.3980   -1.9128 H   0  0  0  0  0  0  0  0  0  0  0  0
   -3.1161    0.9369   -2.9647 H   0  0  0  0  0  0  0  0  0  0  0  0
  1 23  1  0  0  0  0
  1 24  1  0  0  0  0
  1 25  1  0  0  0  0
  2  1  1  0  0  0  0
  2 26  1  0  0  0  0
  2 27  1  0  0  0  0
  3  2  1  0  0  0  0
  4  3  1  0  0  0  0
  4 28  1  0  0  0  0
  4 29  1  0  0  0  0
  5  4  1  0  0  0  0
  5 30  1  0  0  0  0
  5 31  1  0  0  0  0
  5 32  1  0  0  0  0
  6  3  1  0  0  0  0
  7  6  2  0  0  0  0
  7 33  1  0  0  0  0
  8  7  1  0  0  0  0
  8 34  1  0  0  0  0
  9  8  2  0  0  0  0
 10  9  1  0  0  0  0
 10 35  1  0  0  0  0
 11 10  2  0  0  0  0
 11  6  1  0  0  0  0
 11 36  1  0  0  0  0
 12  9  1  0  0  0  0
 12 37  1  0  0  0  0
 13 12  1  0  0  0  0
 14 13  1  0  0  0  0
 14 38  1  0  0  0  0
 14 39  1  0  0  0  0
 14 40  1  0  0  0  0
 15 13  1  0  0  0  0
 16 15  2  0  0  0  0
 17 16  1  0  0  0  0
 17 41  1  0  0  0  0
 18 17  2  0  0  0  0
 18 42  1  0  0  0  0
 19 18  1  0  0  0  0
 19 43  1  0  0  0  0
 20 19  2  0  0  0  0
 20 15  1  0  0  0  0
 20 44  1  0  0  0  0
 21 16  1  0  0  0  0
 21 12  1  0  0  0  0
 22 21  1  0  0  0  0
 22 45  1  0  0  0  0
 22 46  1  0  0  0  0
 22 47  1  0  0  0  0
M  END
>  <MOL Chiral Flag>
0

>  <energy>
31.738220771711049

$$$$
