>322.sdf
 OpenBabel10062212383D

 51 53  0  0  0  0  0  0  0  0999 V2000
   -7.6224   -0.9079    3.8414 C   0  0  0  0  0  0  0  0  0  0  0  0
   -6.4759   -0.6098    4.8025 C   0  0  0  0  0  0  0  0  0  0  0  0
   -5.1537   -1.2922    4.4161 C   0  0  0  0  0  0  0  0  0  0  0  0
   -4.3080   -0.5869    3.3240 C   0  0  0  0  0  0  0  0  0  0  0  0
   -2.9914   -1.3774    3.1490 C   0  0  0  0  0  0  0  0  0  0  0  0
   -1.8087   -0.6453    2.4644 C   0  0  0  0  0  0  0  0  0  0  0  0
   -0.5801   -1.5875    2.5064 C   0  0  0  0  0  0  0  0  0  0  0  0
    0.8177   -0.9408    2.3680 C   0  0  0  0  0  0  0  0  0  0  0  0
    1.2218   -0.4420    1.0249 N   0  0  0  0  0  0  0  0  0  0  0  0
    1.5911   -1.3620    0.0708 C   0  0  0  0  0  0  0  0  0  0  0  0
    2.1376   -0.9933   -1.1337 C   0  0  0  0  0  0  0  0  0  0  0  0
    2.5787   -2.1830   -1.9232 C   0  0  0  0  0  0  0  0  0  0  0  0
    1.8171   -3.3029   -1.2156 C   0  0  0  0  0  0  0  0  0  0  0  0
    1.6483   -2.8531    0.2387 C   0  0  0  0  0  0  0  0  0  0  0  0
    2.3562    0.3494   -1.4618 C   0  0  0  0  0  0  0  0  0  0  0  0
    2.9275    0.6465   -2.5897 N   0  0  0  0  0  0  0  0  0  0  0  0
    1.9500    1.3369   -0.5125 C   0  0  0  0  0  0  0  0  0  0  0  0
    1.3732    0.9166    0.7412 C   0  0  0  0  0  0  0  0  0  0  0  0
    0.9922    1.9228    1.6717 C   0  0  0  0  0  0  0  0  0  0  0  0
    1.1835    3.2728    1.3925 C   0  0  0  0  0  0  0  0  0  0  0  0
    1.7497    3.6700    0.1940 C   0  0  0  0  0  0  0  0  0  0  0  0
    2.1277    2.7263   -0.7520 C   0  0  0  0  0  0  0  0  0  0  0  0
   -7.4118   -0.5298    2.8226 H   0  0  0  0  0  0  0  0  0  0  0  0
   -8.5504   -0.4304    4.2261 H   0  0  0  0  0  0  0  0  0  0  0  0
   -7.8016   -2.0055    3.8038 H   0  0  0  0  0  0  0  0  0  0  0  0
   -6.7908   -1.0233    5.7865 H   0  0  0  0  0  0  0  0  0  0  0  0
   -6.3262    0.4842    4.9282 H   0  0  0  0  0  0  0  0  0  0  0  0
   -4.5324   -1.2758    5.3384 H   0  0  0  0  0  0  0  0  0  0  0  0
   -5.3442   -2.3574    4.1587 H   0  0  0  0  0  0  0  0  0  0  0  0
   -4.8440   -0.5041    2.3534 H   0  0  0  0  0  0  0  0  0  0  0  0
   -4.0788    0.4365    3.6928 H   0  0  0  0  0  0  0  0  0  0  0  0
   -2.6248   -1.6136    4.1723 H   0  0  0  0  0  0  0  0  0  0  0  0
   -3.2138   -2.3381    2.6347 H   0  0  0  0  0  0  0  0  0  0  0  0
   -1.5940    0.2644    3.0657 H   0  0  0  0  0  0  0  0  0  0  0  0
   -2.0362   -0.3394    1.4203 H   0  0  0  0  0  0  0  0  0  0  0  0
   -0.7508   -2.4302    1.8146 H   0  0  0  0  0  0  0  0  0  0  0  0
   -0.5394   -2.0220    3.5301 H   0  0  0  0  0  0  0  0  0  0  0  0
    1.5752   -1.6944    2.6775 H   0  0  0  0  0  0  0  0  0  0  0  0
    0.9229   -0.1954    3.1704 H   0  0  0  0  0  0  0  0  0  0  0  0
    3.6798   -2.2780   -1.8021 H   0  0  0  0  0  0  0  0  0  0  0  0
    2.2971   -2.1726   -2.9984 H   0  0  0  0  0  0  0  0  0  0  0  0
    0.7897   -3.2736   -1.6506 H   0  0  0  0  0  0  0  0  0  0  0  0
    2.2066   -4.3309   -1.3719 H   0  0  0  0  0  0  0  0  0  0  0  0
    0.7546   -3.3556    0.6463 H   0  0  0  0  0  0  0  0  0  0  0  0
    2.5447   -3.0901    0.8508 H   0  0  0  0  0  0  0  0  0  0  0  0
    3.2205   -0.0870   -3.2500 H   0  0  0  0  0  0  0  0  0  0  0  0
    0.5363    1.7035    2.6182 H   0  0  0  0  0  0  0  0  0  0  0  0
    0.8897    4.0201    2.1185 H   0  0  0  0  0  0  0  0  0  0  0  0
    1.8980    4.7235   -0.0078 H   0  0  0  0  0  0  0  0  0  0  0  0
    2.5605    3.1136   -1.6570 H   0  0  0  0  0  0  0  0  0  0  0  0
    3.1269    1.6066   -2.8845 H   0  0  0  0  0  0  0  0  0  0  0  0
  1 23  1  0  0  0  0
  1 24  1  0  0  0  0
  1 25  1  0  0  0  0
  2  1  1  0  0  0  0
  2 26  1  0  0  0  0
  2 27  1  0  0  0  0
  3  2  1  0  0  0  0
  3 28  1  0  0  0  0
  3 29  1  0  0  0  0
  4  3  1  0  0  0  0
  4 30  1  0  0  0  0
  4 31  1  0  0  0  0
  5  4  1  0  0  0  0
  5 32  1  0  0  0  0
  5 33  1  0  0  0  0
  6  5  1  0  0  0  0
  6 34  1  0  0  0  0
  6 35  1  0  0  0  0
  7  6  1  0  0  0  0
  7 36  1  0  0  0  0
  7 37  1  0  0  0  0
  8  7  1  0  0  0  0
  8 38  1  0  0  0  0
  8 39  1  0  0  0  0
  9  8  1  0  0  0  0
 10  9  1  0  0  0  0
 11 10  2  0  0  0  0
 12 11  1  0  0  0  0
 12 40  1  0  0  0  0
 12 41  1  0  0  0  0
 13 12  1  0  0  0  0
 13 42  1  0  0  0  0
 13 43  1  0  0  0  0
 14 13  1  0  0  0  0
 14 10  1  0  0  0  0
 14 44  1  0  0  0  0
 14 45  1  0  0  0  0
 15 11  1  0  0  0  0
 16 15  2  0  0  0  0
 16 46  1  0  0  0  0
 16 51  1  0  0  0  0
 17 15  1  0  0  0  0
 18 17  2  0  0  0  0
 18  9  1  0  0  0  0
 19 18  1  0  0  0  0
 19 47  1  0  0  0  0
 20 19  2  0  0  0  0
 20 48  1  0  0  0  0
 21 20  1  0  0  0  0
 21 49  1  0  0  0  0
 22 21  2  0  0  0  0
 22 17  1  0  0  0  0
 22 50  1  0  0  0  0
M  END
>  <MOL Chiral Flag>
0

>  <energy>
56.148850812166444

$$$$
