>327.sdf
 OpenBabel10062212413D

 32 32  0  0  0  0  0  0  0  0999 V2000
   -5.7285   -4.2528   -2.6541 C   0  0  0  0  0  0  0  0  0  0  0  0
   -4.7566   -4.2080   -1.4786 C   0  0  0  0  0  0  0  0  0  0  0  0
   -3.4759   -3.4503   -1.8477 C   0  0  0  0  0  0  0  0  0  0  0  0
   -2.5784   -3.2562   -0.6198 C   0  0  0  0  0  0  0  0  0  0  0  0
   -1.2450   -2.5919   -1.0054 C   0  0  0  0  0  0  0  0  0  0  0  0
   -0.4365   -2.1322    0.1957 C   0  0  0  0  0  0  0  0  0  0  0  0
   -0.9219   -2.2631    1.3110 O   0  0  0  0  0  0  0  0  0  0  0  0
    0.9090   -1.4605    0.0562 C   0  0  0  0  0  0  0  0  0  0  0  0
    1.4536   -0.7333    1.1412 C   0  0  0  0  0  0  0  0  0  0  0  0
    0.7727   -0.6056    2.3009 O   0  0  0  0  0  0  0  0  0  0  0  0
    2.7006   -0.1198    1.0055 C   0  0  0  0  0  0  0  0  0  0  0  0
    3.3948   -0.2415   -0.1966 C   0  0  0  0  0  0  0  0  0  0  0  0
    4.7389    0.3933   -0.3549 C   0  0  0  0  0  0  0  0  0  0  0  0
    2.8662   -0.9219   -1.2066 O   0  0  0  0  0  0  0  0  0  0  0  0
    1.6778   -1.5171   -1.1384 C   0  0  0  0  0  0  0  0  0  0  0  0
    1.2786   -2.1243   -2.1132 O   0  0  0  0  0  0  0  0  0  0  0  0
   -6.6325   -4.8306   -2.3681 H   0  0  0  0  0  0  0  0  0  0  0  0
   -5.2576   -4.7341   -3.5368 H   0  0  0  0  0  0  0  0  0  0  0  0
   -6.0418   -3.2211   -2.9244 H   0  0  0  0  0  0  0  0  0  0  0  0
   -5.2669   -3.7082   -0.6269 H   0  0  0  0  0  0  0  0  0  0  0  0
   -4.4913   -5.2451   -1.1762 H   0  0  0  0  0  0  0  0  0  0  0  0
   -2.9377   -4.0137   -2.6413 H   0  0  0  0  0  0  0  0  0  0  0  0
   -3.7390   -2.4429   -2.2412 H   0  0  0  0  0  0  0  0  0  0  0  0
   -3.1341   -2.6145    0.0990 H   0  0  0  0  0  0  0  0  0  0  0  0
   -2.3593   -4.2331   -0.1334 H   0  0  0  0  0  0  0  0  0  0  0  0
   -0.6830   -3.3318   -1.6114 H   0  0  0  0  0  0  0  0  0  0  0  0
   -1.4480   -1.6862   -1.6174 H   0  0  0  0  0  0  0  0  0  0  0  0
    1.1139   -0.0835    3.0412 H   0  0  0  0  0  0  0  0  0  0  0  0
    3.1261    0.4441    1.8272 H   0  0  0  0  0  0  0  0  0  0  0  0
    5.1497    0.1808   -1.3644 H   0  0  0  0  0  0  0  0  0  0  0  0
    5.4377   -0.0137    0.4065 H   0  0  0  0  0  0  0  0  0  0  0  0
    4.6549    1.4925   -0.2251 H   0  0  0  0  0  0  0  0  0  0  0  0
  1 17  1  0  0  0  0
  1 18  1  0  0  0  0
  1 19  1  0  0  0  0
  2  1  1  0  0  0  0
  2 20  1  0  0  0  0
  2 21  1  0  0  0  0
  3  2  1  0  0  0  0
  3 22  1  0  0  0  0
  3 23  1  0  0  0  0
  4  3  1  0  0  0  0
  4 24  1  0  0  0  0
  4 25  1  0  0  0  0
  5  4  1  0  0  0  0
  5 26  1  0  0  0  0
  5 27  1  0  0  0  0
  6  5  1  0  0  0  0
  7  6  2  0  0  0  0
  8  6  1  0  0  0  0
  9  8  2  0  0  0  0
 10  9  1  0  0  0  0
 10 28  1  0  0  0  0
 11  9  1  0  0  0  0
 11 29  1  0  0  0  0
 12 11  2  0  0  0  0
 13 12  1  0  0  0  0
 13 30  1  0  0  0  0
 13 31  1  0  0  0  0
 13 32  1  0  0  0  0
 14 12  1  0  0  0  0
 15 14  1  0  0  0  0
 15  8  1  0  0  0  0
 16 15  2  0  0  0  0
M  END
>  <MOL Chiral Flag>
0

>  <energy>
15.161691997332079

$$$$
