>328.sdf
 OpenBabel10062212413D

 32 34  0  0  0  0  0  0  0  0999 V2000
   -4.6469    1.9985    0.7017 O   0  0  0  0  0  0  0  0  0  0  0  0
   -4.1248    0.9795   -0.1118 C   0  0  0  0  0  0  0  0  0  0  0  0
   -3.7330   -0.2091    0.7830 C   0  0  0  0  0  0  0  0  0  0  0  0
   -3.0476   -1.2941   -0.0447 C   0  0  0  0  0  0  0  0  0  0  0  0
   -1.9310   -0.6928   -0.7503 N   0  0  0  0  0  0  0  0  0  0  0  0
   -2.2342    0.3732   -1.6902 C   0  0  0  0  0  0  0  0  0  0  0  0
   -2.8978    1.5064   -0.8866 C   0  0  0  0  0  0  0  0  0  0  0  0
   -0.6081   -0.8474   -0.2504 C   0  0  0  0  0  0  0  0  0  0  0  0
   -0.3357   -1.1086    1.0572 N   0  0  0  0  0  0  0  0  0  0  0  0
    0.9695   -0.9895    1.3699 N   0  0  0  0  0  0  0  0  0  0  0  0
    1.7550   -0.6502    0.3122 C   0  0  0  0  0  0  0  0  0  0  0  0
    0.8032   -0.4759   -1.0246 S   0  0  0  0  0  0  0  0  0  0  0  0
    3.2013   -0.4593    0.3914 C   0  0  0  0  0  0  0  0  0  0  0  0
    3.9382   -0.2127    1.5560 C   0  0  0  0  0  0  0  0  0  0  0  0
    5.3349   -0.0847    1.3193 C   0  0  0  0  0  0  0  0  0  0  0  0
    5.6760   -0.2555   -0.0272 C   0  0  0  0  0  0  0  0  0  0  0  0
    4.2723   -0.5116   -0.8738 S   0  0  0  0  0  0  0  0  0  0  0  0
    6.9844   -0.2363   -0.5723 N   0  0  0  0  0  0  0  0  0  0  0  0
    7.9256   -0.0319    0.1348 O   0  0  0  0  0  0  0  0  0  0  0  0
    7.1556   -0.4774   -1.7274 O   0  0  0  0  0  0  0  0  0  0  0  0
   -5.4246    2.3901    0.2280 H   0  0  0  0  0  0  0  0  0  0  0  0
   -4.8882    0.6217   -0.8430 H   0  0  0  0  0  0  0  0  0  0  0  0
   -4.6263   -0.6275    1.2941 H   0  0  0  0  0  0  0  0  0  0  0  0
   -3.0143    0.1365    1.5590 H   0  0  0  0  0  0  0  0  0  0  0  0
   -2.7147   -2.1195    0.6211 H   0  0  0  0  0  0  0  0  0  0  0  0
   -3.7551   -1.7299   -0.7859 H   0  0  0  0  0  0  0  0  0  0  0  0
   -1.3238    0.7762   -2.1819 H   0  0  0  0  0  0  0  0  0  0  0  0
   -2.9136   -0.0036   -2.4854 H   0  0  0  0  0  0  0  0  0  0  0  0
   -2.1522    1.8936   -0.1544 H   0  0  0  0  0  0  0  0  0  0  0  0
   -3.1883    2.3414   -1.5581 H   0  0  0  0  0  0  0  0  0  0  0  0
    3.4908   -0.1124    2.5366 H   0  0  0  0  0  0  0  0  0  0  0  0
    6.0534    0.1128    2.1036 H   0  0  0  0  0  0  0  0  0  0  0  0
  1 21  1  0  0  0  0
  2  1  1  0  0  0  0
  2 22  1  0  0  0  0
  3  2  1  0  0  0  0
  3 23  1  0  0  0  0
  3 24  1  0  0  0  0
  4  3  1  0  0  0  0
  4 25  1  0  0  0  0
  4 26  1  0  0  0  0
  5  4  1  0  0  0  0
  6  5  1  0  0  0  0
  6 27  1  0  0  0  0
  6 28  1  0  0  0  0
  7  6  1  0  0  0  0
  7  2  1  0  0  0  0
  7 29  1  0  0  0  0
  7 30  1  0  0  0  0
  8  5  1  0  0  0  0
  9  8  2  0  0  0  0
 10  9  1  0  0  0  0
 11 10  2  0  0  0  0
 12 11  1  0  0  0  0
 12  8  1  0  0  0  0
 13 11  1  0  0  0  0
 14 13  2  0  0  0  0
 14 31  1  0  0  0  0
 15 14  1  0  0  0  0
 15 32  1  0  0  0  0
 16 15  2  0  0  0  0
 17 16  1  0  0  0  0
 17 13  1  0  0  0  0
 18 16  1  0  0  0  0
 19 18  2  0  0  0  0
 20 18  2  0  0  0  0
M  END
>  <MOL Chiral Flag>
0

>  <energy>
34.314983094410366

$$$$
