>329.sdf
 OpenBabel10062212423D

 60 65  0  0  0  0  0  0  0  0999 V2000
    6.6196   -5.5580    1.7165 C   0  0  0  0  0  0  0  0  0  0  0  0
    7.0792   -4.3989    0.8751 C   0  0  0  0  0  0  0  0  0  0  0  0
    8.3860   -3.9945    0.7245 C   0  0  0  0  0  0  0  0  0  0  0  0
    9.5705   -4.4944    1.2629 C   0  0  0  0  0  0  0  0  0  0  0  0
   10.7711   -3.8733    0.8793 C   0  0  0  0  0  0  0  0  0  0  0  0
   10.7492   -2.7807   -0.0144 C   0  0  0  0  0  0  0  0  0  0  0  0
    9.5193   -2.3237   -0.5203 C   0  0  0  0  0  0  0  0  0  0  0  0
    8.3883   -2.9609   -0.1263 N   0  0  0  0  0  0  0  0  0  0  0  0
    7.1452   -2.7195   -0.5135 N   0  0  0  0  0  0  0  0  0  0  0  0
    6.3258   -3.5856    0.0787 N   0  3  0  0  0  0  0  0  0  0  0  0
    4.8948   -3.7030   -0.2317 C   0  0  0  0  0  0  0  0  0  0  0  0
    4.0497   -2.4668    0.0023 C   0  0  0  0  0  0  0  0  0  0  0  0
    4.2652   -1.2882   -0.7250 C   0  0  0  0  0  0  0  0  0  0  0  0
    3.3675   -0.2135   -0.6212 C   0  0  0  0  0  0  0  0  0  0  0  0
    2.2299   -0.2899    0.2235 C   0  0  0  0  0  0  0  0  0  0  0  0
    2.0629   -1.4658    0.9896 C   0  0  0  0  0  0  0  0  0  0  0  0
    2.9552   -2.5342    0.8744 C   0  0  0  0  0  0  0  0  0  0  0  0
    1.1811    0.8086    0.2557 C   0  0  0  0  0  0  0  0  0  0  0  0
    1.1091    1.7716   -0.7760 C   0  0  0  0  0  0  0  0  0  0  0  0
    0.0936    2.7320   -0.7933 C   0  0  0  0  0  0  0  0  0  0  0  0
   -0.8815    2.7747    0.2128 C   0  0  0  0  0  0  0  0  0  0  0  0
   -1.9684    3.8297    0.0999 C   0  0  0  0  0  0  0  0  0  0  0  0
   -3.0262    3.8037    1.1192 N   0  3  0  0  0  0  0  0  0  0  0  0
   -3.2614    4.8212    1.9436 N   0  0  0  0  0  0  0  0  0  0  0  0
   -4.3355    4.5582    2.6688 N   0  0  0  0  0  0  0  0  0  0  0  0
   -4.9141    5.3541    3.6022 C   0  0  0  0  0  0  0  0  0  0  0  0
   -6.0771    4.8922    4.2390 C   0  0  0  0  0  0  0  0  0  0  0  0
   -6.6014    3.6282    3.8949 C   0  0  0  0  0  0  0  0  0  0  0  0
   -5.9649    2.8399    2.9189 C   0  0  0  0  0  0  0  0  0  0  0  0
   -4.8145    3.3561    2.3200 C   0  0  0  0  0  0  0  0  0  0  0  0
   -3.9882    2.8618    1.3272 C   0  0  0  0  0  0  0  0  0  0  0  0
   -4.1423    1.5727    0.5740 C   0  0  0  0  0  0  0  0  0  0  0  0
   -0.8061    1.8477    1.2624 C   0  0  0  0  0  0  0  0  0  0  0  0
    0.2034    0.8738    1.2809 C   0  0  0  0  0  0  0  0  0  0  0  0
    7.1061   -6.4874    1.3529 H   0  0  0  0  0  0  0  0  0  0  0  0
    5.5275   -5.7150    1.7035 H   0  0  0  0  0  0  0  0  0  0  0  0
    6.9213   -5.3859    2.7705 H   0  0  0  0  0  0  0  0  0  0  0  0
    9.5712   -5.3397    1.9395 H   0  0  0  0  0  0  0  0  0  0  0  0
   11.7145   -4.2384    1.2653 H   0  0  0  0  0  0  0  0  0  0  0  0
   11.6742   -2.3051   -0.3137 H   0  0  0  0  0  0  0  0  0  0  0  0
    9.4776   -1.4954   -1.2153 H   0  0  0  0  0  0  0  0  0  0  0  0
    4.8022   -3.9575   -1.3085 H   0  0  0  0  0  0  0  0  0  0  0  0
    4.4513   -4.5514    0.3173 H   0  0  0  0  0  0  0  0  0  0  0  0
    5.0991   -1.2155   -1.4116 H   0  0  0  0  0  0  0  0  0  0  0  0
    3.5642    0.6581   -1.2250 H   0  0  0  0  0  0  0  0  0  0  0  0
    1.2142   -1.6037    1.6380 H   0  0  0  0  0  0  0  0  0  0  0  0
    2.7608   -3.4388    1.4370 H   0  0  0  0  0  0  0  0  0  0  0  0
    1.8051    1.7739   -1.5993 H   0  0  0  0  0  0  0  0  0  0  0  0
    0.0543    3.4406   -1.6127 H   0  0  0  0  0  0  0  0  0  0  0  0
   -1.4661    4.8211    0.1281 H   0  0  0  0  0  0  0  0  0  0  0  0
   -2.4591    3.7293   -0.8923 H   0  0  0  0  0  0  0  0  0  0  0  0
   -4.4970    6.3239    3.8420 H   0  0  0  0  0  0  0  0  0  0  0  0
   -6.5711    5.5029    4.9841 H   0  0  0  0  0  0  0  0  0  0  0  0
   -7.5000    3.2674    4.3791 H   0  0  0  0  0  0  0  0  0  0  0  0
   -6.3659    1.8740    2.6440 H   0  0  0  0  0  0  0  0  0  0  0  0
   -5.0344    1.0138    0.9227 H   0  0  0  0  0  0  0  0  0  0  0  0
   -4.2626    1.7884   -0.5069 H   0  0  0  0  0  0  0  0  0  0  0  0
   -3.2595    0.9226    0.7200 H   0  0  0  0  0  0  0  0  0  0  0  0
   -1.5299    1.8623    2.0650 H   0  0  0  0  0  0  0  0  0  0  0  0
    0.2046    0.1806    2.1053 H   0  0  0  0  0  0  0  0  0  0  0  0
  1 35  1  0  0  0  0
  1 36  1  0  0  0  0
  1 37  1  0  0  0  0
  2  1  1  0  0  0  0
  3  2  2  0  0  0  0
  4  3  1  0  0  0  0
  4 38  1  0  0  0  0
  5  4  2  0  0  0  0
  5 39  1  0  0  0  0
  6  5  1  0  0  0  0
  6 40  1  0  0  0  0
  7  6  2  0  0  0  0
  7 41  1  0  0  0  0
  8  7  1  0  0  0  0
  8  3  1  0  0  0  0
  9  8  1  0  0  0  0
 10  9  2  0  0  0  0
 10  2  1  0  0  0  0
 11 10  1  0  0  0  0
 11 42  1  0  0  0  0
 11 43  1  0  0  0  0
 12 11  1  0  0  0  0
 13 12  2  0  0  0  0
 13 44  1  0  0  0  0
 14 13  1  0  0  0  0
 14 45  1  0  0  0  0
 15 14  2  0  0  0  0
 16 15  1  0  0  0  0
 16 46  1  0  0  0  0
 17 16  2  0  0  0  0
 17 12  1  0  0  0  0
 17 47  1  0  0  0  0
 18 15  1  0  0  0  0
 19 18  2  0  0  0  0
 19 48  1  0  0  0  0
 20 19  1  0  0  0  0
 20 49  1  0  0  0  0
 21 20  2  0  0  0  0
 22 21  1  0  0  0  0
 22 50  1  0  0  0  0
 22 51  1  0  0  0  0
 23 22  1  0  0  0  0
 24 23  2  0  0  0  0
 25 24  1  0  0  0  0
 26 25  1  0  0  0  0
 26 52  1  0  0  0  0
 27 26  2  0  0  0  0
 27 53  1  0  0  0  0
 28 27  1  0  0  0  0
 28 54  1  0  0  0  0
 29 28  2  0  0  0  0
 29 55  1  0  0  0  0
 30 29  1  0  0  0  0
 30 25  1  0  0  0  0
 31 30  2  0  0  0  0
 31 23  1  0  0  0  0
 32 31  1  0  0  0  0
 32 56  1  0  0  0  0
 32 57  1  0  0  0  0
 32 58  1  0  0  0  0
 33 21  1  0  0  0  0
 33 59  1  0  0  0  0
 34 33  2  0  0  0  0
 34 18  1  0  0  0  0
 34 60  1  0  0  0  0
M  CHG  2  10   1  23   1
M  END
>  <MOL Chiral Flag>
0

>  <energy>
262.9095203686079

$$$$
