>330.sdf
 OpenBabel10062212423D

 34 37  0  0  0  0  0  0  0  0999 V2000
   -7.7272   -0.2858   -0.9742 Cl  0  0  0  0  0  0  0  0  0  0  0  0
   -6.5151   -1.2693   -1.8367 C   0  0  0  0  0  0  0  0  0  0  0  0
   -5.1442   -1.0280   -1.2892 C   0  0  0  0  0  0  0  0  0  0  0  0
   -4.8908   -1.2826    0.0638 C   0  0  0  0  0  0  0  0  0  0  0  0
   -3.6190   -1.0944    0.5822 C   0  0  0  0  0  0  0  0  0  0  0  0
   -2.5729   -0.6674   -0.2450 C   0  0  0  0  0  0  0  0  0  0  0  0
   -2.8175   -0.4044   -1.6012 C   0  0  0  0  0  0  0  0  0  0  0  0
   -4.1036   -0.5750   -2.1199 C   0  0  0  0  0  0  0  0  0  0  0  0
   -1.2494   -0.5016    0.3478 C   0  0  0  0  0  0  0  0  0  0  0  0
   -0.0345   -0.3062   -0.2806 C   0  0  0  0  0  0  0  0  0  0  0  0
    0.8604   -0.2013    0.7645 C   0  0  0  0  0  0  0  0  0  0  0  0
    0.1934   -0.3371    1.9273 N   0  0  0  0  0  0  0  0  0  0  0  0
   -1.0529   -0.5201    1.6435 O   0  0  0  0  0  0  0  0  0  0  0  0
    2.3123    0.0048    0.7186 C   0  0  0  0  0  0  0  0  0  0  0  0
    3.0354    0.0632   -0.4992 C   0  0  0  0  0  0  0  0  0  0  0  0
    4.4199    0.2197   -0.4161 C   0  0  0  0  0  0  0  0  0  0  0  0
    5.0574    0.3277    0.7578 C   0  0  0  0  0  0  0  0  0  0  0  0
    6.3644    0.4409    0.5443 O   0  0  0  0  0  0  0  0  0  0  0  0
    6.5904    0.3873   -0.8326 C   0  0  0  0  0  0  0  0  0  0  0  0
    5.3159    0.2654   -1.4019 O   0  0  0  0  0  0  0  0  0  0  0  0
    4.3914    0.2981    1.9724 C   0  0  0  0  0  0  0  0  0  0  0  0
    3.0052    0.1297    1.9503 C   0  0  0  0  0  0  0  0  0  0  0  0
   -6.5640   -1.0329   -2.9192 H   0  0  0  0  0  0  0  0  0  0  0  0
   -6.7541   -2.3445   -1.6973 H   0  0  0  0  0  0  0  0  0  0  0  0
   -5.6793   -1.6320    0.7176 H   0  0  0  0  0  0  0  0  0  0  0  0
   -3.4429   -1.3013    1.6311 H   0  0  0  0  0  0  0  0  0  0  0  0
   -2.0230   -0.0602   -2.2520 H   0  0  0  0  0  0  0  0  0  0  0  0
   -4.2844   -0.3656   -3.1666 H   0  0  0  0  0  0  0  0  0  0  0  0
    0.1657   -0.2580   -1.3438 H   0  0  0  0  0  0  0  0  0  0  0  0
    2.5484   -0.0299   -1.4626 H   0  0  0  0  0  0  0  0  0  0  0  0
    7.0897    1.3172   -1.1735 H   0  0  0  0  0  0  0  0  0  0  0  0
    7.2065   -0.5038   -1.0775 H   0  0  0  0  0  0  0  0  0  0  0  0
    4.9211    0.3864    2.9096 H   0  0  0  0  0  0  0  0  0  0  0  0
    2.4688    0.0891    2.8897 H   0  0  0  0  0  0  0  0  0  0  0  0
  2  1  1  0  0  0  0
  2 23  1  0  0  0  0
  2 24  1  0  0  0  0
  3  2  1  0  0  0  0
  4  3  2  0  0  0  0
  4 25  1  0  0  0  0
  5  4  1  0  0  0  0
  5 26  1  0  0  0  0
  6  5  2  0  0  0  0
  7  6  1  0  0  0  0
  7 27  1  0  0  0  0
  8  7  2  0  0  0  0
  8  3  1  0  0  0  0
  8 28  1  0  0  0  0
  9  6  1  0  0  0  0
 10  9  2  0  0  0  0
 10 29  1  0  0  0  0
 11 10  1  0  0  0  0
 12 11  2  0  0  0  0
 13 12  1  0  0  0  0
 13  9  1  0  0  0  0
 14 11  1  0  0  0  0
 15 14  2  0  0  0  0
 15 30  1  0  0  0  0
 16 15  1  0  0  0  0
 17 16  2  0  0  0  0
 18 17  1  0  0  0  0
 19 18  1  0  0  0  0
 19 31  1  0  0  0  0
 19 32  1  0  0  0  0
 20 19  1  0  0  0  0
 20 16  1  0  0  0  0
 21 17  1  0  0  0  0
 21 33  1  0  0  0  0
 22 21  2  0  0  0  0
 22 14  1  0  0  0  0
 22 34  1  0  0  0  0
M  END
>  <MOL Chiral Flag>
0

>  <energy>
60.23313374615752

$$$$
