>331.sdf
 OpenBabel10062212433D

 30 32  0  0  0  0  0  0  0  0999 V2000
   -5.5797   -1.2738    1.9483 O   0  5  0  0  0  0  0  0  0  0  0  0
   -6.2615   -0.9625    0.8704 N   0  3  0  0  0  0  0  0  0  0  0  0
   -7.3665   -1.3990    0.7219 O   0  0  0  0  0  0  0  0  0  0  0  0
   -5.6852   -0.1362   -0.1247 C   0  0  0  0  0  0  0  0  0  0  0  0
   -6.3105    0.3304   -1.2650 C   0  0  0  0  0  0  0  0  0  0  0  0
   -5.3593    1.0565   -1.9460 C   0  0  0  0  0  0  0  0  0  0  0  0
   -4.2130    0.9599   -1.2013 C   0  0  0  0  0  0  0  0  0  0  0  0
   -4.4307    0.2458   -0.1173 O   0  0  0  0  0  0  0  0  0  0  0  0
   -2.9006    1.3583   -1.6729 C   0  0  0  0  0  0  0  0  0  0  0  0
   -1.9175    0.7008   -1.2081 N   0  0  0  0  0  0  0  0  0  0  0  0
   -0.6794    0.6867   -1.7888 N   0  0  0  0  0  0  0  0  0  0  0  0
    0.4007    0.6098   -0.8982 C   0  0  0  0  0  0  0  0  0  0  0  0
    0.2758    1.2878    0.2704 N   0  0  0  0  0  0  0  0  0  0  0  0
    1.1915    1.2377    1.2262 N   0  0  0  0  0  0  0  0  0  0  0  0
    2.2947    0.4709    1.1042 C   0  0  0  0  0  0  0  0  0  0  0  0
    3.4163    0.4385    2.4540 Cl  0  0  0  0  0  0  0  0  0  0  0  0
    2.4907   -0.2856   -0.0688 C   0  0  0  0  0  0  0  0  0  0  0  0
    3.6012   -1.1320   -0.2071 C   0  0  0  0  0  0  0  0  0  0  0  0
    3.7658   -1.8990   -1.3583 C   0  0  0  0  0  0  0  0  0  0  0  0
    2.8318   -1.8279   -2.3908 C   0  0  0  0  0  0  0  0  0  0  0  0
    1.7171   -0.9903   -2.2777 C   0  0  0  0  0  0  0  0  0  0  0  0
    1.5323   -0.2085   -1.1111 C   0  0  0  0  0  0  0  0  0  0  0  0
   -7.3221    0.1360   -1.5861 H   0  0  0  0  0  0  0  0  0  0  0  0
   -5.4538    1.5277   -2.9134 H   0  0  0  0  0  0  0  0  0  0  0  0
   -2.7792    2.0195   -2.5240 H   0  0  0  0  0  0  0  0  0  0  0  0
   -0.6001    0.3970   -2.7760 H   0  0  0  0  0  0  0  0  0  0  0  0
    4.3345   -1.2156    0.5813 H   0  0  0  0  0  0  0  0  0  0  0  0
    4.6199   -2.5570   -1.4442 H   0  0  0  0  0  0  0  0  0  0  0  0
    2.9688   -2.4338   -3.2782 H   0  0  0  0  0  0  0  0  0  0  0  0
    1.0122   -0.9796   -3.0967 H   0  0  0  0  0  0  0  0  0  0  0  0
  2  1  1  0  0  0  0
  3  2  2  0  0  0  0
  4  2  1  0  0  0  0
  5  4  2  0  0  0  0
  5 23  1  0  0  0  0
  6  5  1  0  0  0  0
  6 24  1  0  0  0  0
  7  6  2  0  0  0  0
  8  7  1  0  0  0  0
  8  4  1  0  0  0  0
  9  7  1  0  0  0  0
  9 25  1  0  0  0  0
 10  9  2  0  0  0  0
 11 10  1  0  0  0  0
 11 26  1  0  0  0  0
 12 11  1  0  0  0  0
 13 12  2  0  0  0  0
 14 13  1  0  0  0  0
 15 14  2  0  0  0  0
 16 15  1  0  0  0  0
 17 15  1  0  0  0  0
 18 17  2  0  0  0  0
 18 27  1  0  0  0  0
 19 18  1  0  0  0  0
 19 28  1  0  0  0  0
 20 19  2  0  0  0  0
 20 29  1  0  0  0  0
 21 20  1  0  0  0  0
 21 30  1  0  0  0  0
 22 21  2  0  0  0  0
 22 12  1  0  0  0  0
 22 17  1  0  0  0  0
M  CHG  2   1  -1   2   1
M  END
>  <MOL Chiral Flag>
0

>  <energy>
168.48419843832087

$$$$
