>334.sdf
 OpenBabel10062212453D

 27 28  0  0  0  0  0  0  0  0999 V2000
   -3.3917   -3.5308    2.0447 N   0  3  0  0  0  0  0  0  0  0  0  0
   -3.1963   -2.0795    2.0568 C   0  0  0  0  0  0  0  0  0  0  0  0
   -1.7668   -1.7038    1.6431 C   0  0  0  0  0  0  0  0  0  0  0  0
   -1.4712    0.0745    1.9829 S   0  0  0  0  0  0  0  0  0  0  0  0
   -0.4913    0.5912    0.5416 C   0  0  0  0  0  0  0  0  0  0  0  0
   -1.0109    1.6208   -0.2547 C   0  0  0  0  0  0  0  0  0  0  0  0
   -0.2757    2.1176   -1.3320 C   0  0  0  0  0  0  0  0  0  0  0  0
    0.9479    1.6064   -1.6184 N   0  0  0  0  0  0  0  0  0  0  0  0
    1.4964    0.6093   -0.8775 C   0  0  0  0  0  0  0  0  0  0  0  0
    2.7683    0.1261   -1.2080 C   0  0  0  0  0  0  0  0  0  0  0  0
    3.3502   -0.8931   -0.4524 C   0  0  0  0  0  0  0  0  0  0  0  0
    4.9430   -1.4966   -0.8728 Cl  0  0  0  0  0  0  0  0  0  0  0  0
    2.6673   -1.4281    0.6424 C   0  0  0  0  0  0  0  0  0  0  0  0
    1.4012   -0.9472    0.9904 C   0  0  0  0  0  0  0  0  0  0  0  0
    0.7927    0.0710    0.2331 C   0  0  0  0  0  0  0  0  0  0  0  0
   -2.7468   -3.9809    2.7359 H   0  0  0  0  0  0  0  0  0  0  0  0
   -3.2144   -3.9209    1.0916 H   0  0  0  0  0  0  0  0  0  0  0  0
   -4.3753   -3.7475    2.3277 H   0  0  0  0  0  0  0  0  0  0  0  0
   -3.3876   -1.7138    3.0903 H   0  0  0  0  0  0  0  0  0  0  0  0
   -3.9248   -1.5905    1.3730 H   0  0  0  0  0  0  0  0  0  0  0  0
   -1.6064   -1.9591    0.5737 H   0  0  0  0  0  0  0  0  0  0  0  0
   -1.0613   -2.2836    2.2725 H   0  0  0  0  0  0  0  0  0  0  0  0
   -1.9782    2.0516   -0.0294 H   0  0  0  0  0  0  0  0  0  0  0  0
   -0.6737    2.9227   -1.9357 H   0  0  0  0  0  0  0  0  0  0  0  0
    3.3050    0.5454   -2.0512 H   0  0  0  0  0  0  0  0  0  0  0  0
    3.1199   -2.2169    1.2292 H   0  0  0  0  0  0  0  0  0  0  0  0
    0.9136   -1.3760    1.8477 H   0  0  0  0  0  0  0  0  0  0  0  0
  1 16  1  0  0  0  0
  1 17  1  0  0  0  0
  1 18  1  0  0  0  0
  2  1  1  0  0  0  0
  2 19  1  0  0  0  0
  2 20  1  0  0  0  0
  3  2  1  0  0  0  0
  3 21  1  0  0  0  0
  3 22  1  0  0  0  0
  4  3  1  0  0  0  0
  5  4  1  0  0  0  0
  6  5  2  0  0  0  0
  6 23  1  0  0  0  0
  7  6  1  0  0  0  0
  7 24  1  0  0  0  0
  8  7  2  0  0  0  0
  9  8  1  0  0  0  0
 10  9  2  0  0  0  0
 10 25  1  0  0  0  0
 11 10  1  0  0  0  0
 12 11  1  0  0  0  0
 13 11  2  0  0  0  0
 13 26  1  0  0  0  0
 14 13  1  0  0  0  0
 14 27  1  0  0  0  0
 15 14  2  0  0  0  0
 15  5  1  0  0  0  0
 15  9  1  0  0  0  0
M  CHG  1   1   1
M  END
>  <MOL Chiral Flag>
0

>  <energy>
37.782439990825715

$$$$
