>335.sdf
 OpenBabel10062212453D

 33 35  0  0  0  0  0  0  0  0999 V2000
    3.9554    4.0525    1.9504 O   0  0  0  0  0  0  0  0  0  0  0  0
    3.3237    2.9734    1.4458 C   0  0  0  0  0  0  0  0  0  0  0  0
    3.1494    1.8359    2.2429 C   0  0  0  0  0  0  0  0  0  0  0  0
    2.4929    0.7103    1.7320 C   0  0  0  0  0  0  0  0  0  0  0  0
    2.0006    0.7197    0.4152 C   0  0  0  0  0  0  0  0  0  0  0  0
    1.2825   -0.4389   -0.1536 C   0  0  0  0  0  0  0  0  0  0  0  0
    1.1467   -1.5431    0.4996 N   0  0  0  0  0  0  0  0  0  0  0  0
    0.4149   -2.5965   -0.0240 N   0  0  0  0  0  0  0  0  0  0  0  0
   -0.7846   -2.3793   -0.7747 C   0  0  0  0  0  0  0  0  0  0  0  0
   -0.9973   -3.1557   -1.9241 C   0  0  0  0  0  0  0  0  0  0  0  0
   -2.1188   -2.9350   -2.7212 C   0  0  0  0  0  0  0  0  0  0  0  0
   -3.0224   -1.9816   -2.3862 N   0  0  0  0  0  0  0  0  0  0  0  0
   -2.8842   -1.2245   -1.2642 C   0  0  0  0  0  0  0  0  0  0  0  0
   -3.8650   -0.2769   -0.9506 C   0  0  0  0  0  0  0  0  0  0  0  0
   -3.7580    0.4874    0.2136 C   0  0  0  0  0  0  0  0  0  0  0  0
   -4.9960    1.6660    0.6077 Cl  0  0  0  0  0  0  0  0  0  0  0  0
   -2.6742    0.3025    1.0720 C   0  0  0  0  0  0  0  0  0  0  0  0
   -1.6833   -0.6334    0.7680 C   0  0  0  0  0  0  0  0  0  0  0  0
   -1.7622   -1.4057   -0.4163 C   0  0  0  0  0  0  0  0  0  0  0  0
    2.1784    1.8626   -0.3793 C   0  0  0  0  0  0  0  0  0  0  0  0
    2.8381    2.9820    0.1311 C   0  0  0  0  0  0  0  0  0  0  0  0
    4.0869    4.8553    1.4254 H   0  0  0  0  0  0  0  0  0  0  0  0
    3.5203    1.8259    3.2599 H   0  0  0  0  0  0  0  0  0  0  0  0
    2.3621   -0.1585    2.3648 H   0  0  0  0  0  0  0  0  0  0  0  0
    0.8643   -0.3449   -1.1531 H   0  0  0  0  0  0  0  0  0  0  0  0
    0.8925   -3.5045   -0.1056 H   0  0  0  0  0  0  0  0  0  0  0  0
   -0.2751   -3.9069   -2.2166 H   0  0  0  0  0  0  0  0  0  0  0  0
   -2.2651   -3.5198   -3.6199 H   0  0  0  0  0  0  0  0  0  0  0  0
   -4.7155   -0.1393   -1.6066 H   0  0  0  0  0  0  0  0  0  0  0  0
   -2.6000    0.8829    1.9836 H   0  0  0  0  0  0  0  0  0  0  0  0
   -0.8801   -0.7534    1.4752 H   0  0  0  0  0  0  0  0  0  0  0  0
    1.8053    1.8856   -1.3963 H   0  0  0  0  0  0  0  0  0  0  0  0
    2.9683    3.8560   -0.4947 H   0  0  0  0  0  0  0  0  0  0  0  0
  1 22  1  0  0  0  0
  2  1  1  0  0  0  0
  3  2  2  0  0  0  0
  3 23  1  0  0  0  0
  4  3  1  0  0  0  0
  4 24  1  0  0  0  0
  5  4  2  0  0  0  0
  6  5  1  0  0  0  0
  6 25  1  0  0  0  0
  7  6  2  0  0  0  0
  8  7  1  0  0  0  0
  8 26  1  0  0  0  0
  9  8  1  0  0  0  0
 10  9  2  0  0  0  0
 10 27  1  0  0  0  0
 11 10  1  0  0  0  0
 11 28  1  0  0  0  0
 12 11  2  0  0  0  0
 13 12  1  0  0  0  0
 14 13  2  0  0  0  0
 14 29  1  0  0  0  0
 15 14  1  0  0  0  0
 16 15  1  0  0  0  0
 17 15  2  0  0  0  0
 17 30  1  0  0  0  0
 18 17  1  0  0  0  0
 18 31  1  0  0  0  0
 19 18  2  0  0  0  0
 19  9  1  0  0  0  0
 19 13  1  0  0  0  0
 20  5  1  0  0  0  0
 20 32  1  0  0  0  0
 21 20  2  0  0  0  0
 21  2  1  0  0  0  0
 21 33  1  0  0  0  0
M  END
>  <MOL Chiral Flag>
0

>  <energy>
67.336566389641035

$$$$
