>338.sdf
 OpenBabel10102215123D

 65 68  0  0  0  0  0  0  0  0999 V2000
   -4.7258    2.4765   -0.1838 C   0  0  2  0  0  0  0  0  0  0  0  0
   -4.2582    2.0483   -1.5821 C   0  0  0  0  0  0  0  0  0  0  0  0
   -2.7571    1.9985   -1.6838 C   0  0  0  0  0  0  0  0  0  0  0  0
   -2.2490    1.9055   -2.7899 O   0  0  0  0  0  0  0  0  0  0  0  0
   -1.9017    1.9323   -0.4619 C   0  0  0  0  0  0  0  0  0  0  0  0
   -2.4873    1.8354    0.8239 C   0  0  0  0  0  0  0  0  0  0  0  0
   -1.6471    1.6828    1.9446 C   0  0  0  0  0  0  0  0  0  0  0  0
   -0.2615    1.6506    1.8006 C   0  0  0  0  0  0  0  0  0  0  0  0
    0.3339    1.7432    0.5344 C   0  0  0  0  0  0  0  0  0  0  0  0
   -0.4991    1.8853   -0.5957 C   0  0  0  0  0  0  0  0  0  0  0  0
    1.8571    1.6330    0.4315 C   0  0  0  0  0  0  0  0  0  0  0  0
    2.5383    2.8068    1.1491 C   0  0  0  0  0  0  0  0  0  0  0  0
    2.3972    1.5328   -1.0048 C   0  0  0  0  0  0  0  0  0  0  0  0
   -4.0132    1.7462    0.9745 C   0  0  1  0  0  0  0  0  0  0  0  0
   -4.4992    2.4391    2.3191 C   0  0  0  0  0  0  0  0  0  0  0  0
   -5.7968    3.3071    2.2287 C   0  0  0  0  0  0  0  0  0  0  0  0
   -6.8858    2.6294    1.3839 C   0  0  1  0  0  0  0  0  0  0  0  0
   -7.3149    1.2981    2.0808 C   0  0  0  0  0  0  0  0  0  0  0  0
   -8.1650    3.5256    1.2215 C   0  0  0  0  0  0  0  0  0  0  0  0
   -8.7969    3.9406    2.4979 N   0  3  0  0  0  0  0  0  0  0  0  0
  -10.1987    4.3763    2.3411 C   0  0  0  0  0  0  0  0  0  0  0  0
  -11.0838    3.2883    1.7553 C   0  0  0  0  0  0  0  0  0  0  0  0
  -11.8416    3.5437    0.5990 C   0  0  0  0  0  0  0  0  0  0  0  0
  -12.6413    2.5398    0.0431 C   0  0  0  0  0  0  0  0  0  0  0  0
  -12.6840    1.2722    0.6284 C   0  0  0  0  0  0  0  0  0  0  0  0
  -11.9361    1.0080    1.7779 C   0  0  0  0  0  0  0  0  0  0  0  0
  -11.1450    2.0110    2.3466 C   0  0  0  0  0  0  0  0  0  0  0  0
   -6.2886    2.3830   -0.0629 C   0  0  0  0  0  0  0  0  0  0  0  0
   -4.4258    3.5460   -0.0810 H   0  0  0  0  0  0  0  0  0  0  0  0
   -4.6550    2.7927   -2.3072 H   0  0  0  0  0  0  0  0  0  0  0  0
   -4.6529    1.0495   -1.8667 H   0  0  0  0  0  0  0  0  0  0  0  0
   -2.0629    1.5649    2.9360 H   0  0  0  0  0  0  0  0  0  0  0  0
    0.3512    1.5184    2.6835 H   0  0  0  0  0  0  0  0  0  0  0  0
   -0.0712    1.9386   -1.5848 H   0  0  0  0  0  0  0  0  0  0  0  0
    2.1522    0.6876    0.9396 H   0  0  0  0  0  0  0  0  0  0  0  0
    2.2717    3.7670    0.6580 H   0  0  0  0  0  0  0  0  0  0  0  0
    3.6425    2.6842    1.1196 H   0  0  0  0  0  0  0  0  0  0  0  0
    2.2364    2.8554    2.2156 H   0  0  0  0  0  0  0  0  0  0  0  0
    2.1783    2.4555   -1.5828 H   0  0  0  0  0  0  0  0  0  0  0  0
    1.9513    0.6547   -1.5203 H   0  0  0  0  0  0  0  0  0  0  0  0
    3.4985    1.3857   -0.9886 H   0  0  0  0  0  0  0  0  0  0  0  0
   -4.3037    0.2185    0.9021 C   0  0  0  0  0  0  0  0  0  0  0  0
   -4.5754    1.6672    3.1141 H   0  0  0  0  0  0  0  0  0  0  0  0
   -3.7436    3.1729    2.6764 H   0  0  0  0  0  0  0  0  0  0  0  0
   -6.1421    3.5600    3.2542 H   0  0  0  0  0  0  0  0  0  0  0  0
   -5.5521    4.2727    1.7319 H   0  0  0  0  0  0  0  0  0  0  0  0
   -7.7390    1.4478    3.0876 H   0  0  0  0  0  0  0  0  0  0  0  0
   -6.4933    0.6146    2.3111 H   0  0  0  0  0  0  0  0  0  0  0  0
   -8.0683    0.7607    1.4663 H   0  0  0  0  0  0  0  0  0  0  0  0
   -8.8729    2.9384    0.5977 H   0  0  0  0  0  0  0  0  0  0  0  0
   -7.9228    4.4474    0.6451 H   0  0  0  0  0  0  0  0  0  0  0  0
   -8.2442    4.7288    2.9088 H   0  0  0  0  0  0  0  0  0  0  0  0
   -8.8027    3.1856    3.2085 H   0  0  0  0  0  0  0  0  0  0  0  0
  -10.2406    5.2982    1.7196 H   0  0  0  0  0  0  0  0  0  0  0  0
  -10.6001    4.6388    3.3454 H   0  0  0  0  0  0  0  0  0  0  0  0
  -11.8144    4.5192    0.1303 H   0  0  0  0  0  0  0  0  0  0  0  0
  -13.2248    2.7437   -0.8454 H   0  0  0  0  0  0  0  0  0  0  0  0
  -13.2968    0.4942    0.1910 H   0  0  0  0  0  0  0  0  0  0  0  0
  -11.9671    0.0237    2.2277 H   0  0  0  0  0  0  0  0  0  0  0  0
  -10.5716    1.7843    3.2352 H   0  0  0  0  0  0  0  0  0  0  0  0
   -6.6892    1.4239   -0.4560 H   0  0  0  0  0  0  0  0  0  0  0  0
   -6.6509    3.1594   -0.7734 H   0  0  0  0  0  0  0  0  0  0  0  0
   -3.8182   -0.2287    0.0081 H   0  0  0  0  0  0  0  0  0  0  0  0
   -5.3589   -0.0553    0.7748 H   0  0  0  0  0  0  0  0  0  0  0  0
   -3.8884   -0.3002    1.7927 H   0  0  0  0  0  0  0  0  0  0  0  0
  1 29  1  1  0  0  0
  2  1  1  0  0  0  0
  2 30  1  0  0  0  0
  2 31  1  0  0  0  0
  3  2  1  0  0  0  0
  4  3  2  0  0  0  0
  5  3  1  0  0  0  0
  6  5  2  0  0  0  0
  7  6  1  0  0  0  0
  7 32  1  0  0  0  0
  8  7  2  0  0  0  0
  8 33  1  0  0  0  0
  9  8  1  0  0  0  0
 10  9  2  0  0  0  0
 10  5  1  0  0  0  0
 10 34  1  0  0  0  0
 11  9  1  0  0  0  0
 11 35  1  0  0  0  0
 12 11  1  0  0  0  0
 12 36  1  0  0  0  0
 12 37  1  0  0  0  0
 12 38  1  0  0  0  0
 13 11  1  0  0  0  0
 13 39  1  0  0  0  0
 13 40  1  0  0  0  0
 13 41  1  0  0  0  0
 14  6  1  0  0  0  0
 14  1  1  0  0  0  0
 14 42  1  1  0  0  0
 15 14  1  0  0  0  0
 15 43  1  0  0  0  0
 15 44  1  0  0  0  0
 16 15  1  0  0  0  0
 16 45  1  0  0  0  0
 16 46  1  0  0  0  0
 17 16  1  0  0  0  0
 17 18  1  1  0  0  0
 18 47  1  0  0  0  0
 18 48  1  0  0  0  0
 18 49  1  0  0  0  0
 19 17  1  0  0  0  0
 19 50  1  0  0  0  0
 19 51  1  0  0  0  0
 20 19  1  0  0  0  0
 20 52  1  0  0  0  0
 20 53  1  0  0  0  0
 21 20  1  0  0  0  0
 21 54  1  0  0  0  0
 21 55  1  0  0  0  0
 22 21  1  0  0  0  0
 23 22  2  0  0  0  0
 23 56  1  0  0  0  0
 24 23  1  0  0  0  0
 24 57  1  0  0  0  0
 25 24  2  0  0  0  0
 25 58  1  0  0  0  0
 26 25  1  0  0  0  0
 26 59  1  0  0  0  0
 27 26  2  0  0  0  0
 27 22  1  0  0  0  0
 27 60  1  0  0  0  0
 28 17  1  0  0  0  0
 28  1  1  0  0  0  0
 28 61  1  0  0  0  0
 28 62  1  0  0  0  0
 42 63  1  0  0  0  0
 42 64  1  0  0  0  0
 42 65  1  0  0  0  0
M  CHG  1  20   1
M  END
>  <MOL Chiral Flag>
0

>  <energy>
119.40683964860816

$$$$
