>34.sdf
 OpenBabel10052218033D

 45 48  0  0  0  0  0  0  0  0999 V2000
   -1.9659   -7.5540   -3.4101 Cl  0  0  0  0  0  0  0  0  0  0  0  0
   -0.7344   -6.4303   -2.8640 C   0  0  0  0  0  0  0  0  0  0  0  0
   -1.1007   -5.2806   -2.1646 C   0  0  0  0  0  0  0  0  0  0  0  0
   -0.1258   -4.3785   -1.7296 C   0  0  0  0  0  0  0  0  0  0  0  0
    1.2453   -4.6177   -1.9905 C   0  0  0  0  0  0  0  0  0  0  0  0
    1.5954   -5.7867   -2.6986 C   0  0  0  0  0  0  0  0  0  0  0  0
    0.6121   -6.6827   -3.1301 C   0  0  0  0  0  0  0  0  0  0  0  0
    2.3275   -3.6671   -1.5588 C   0  0  0  0  0  0  0  0  0  0  0  0
    3.4904   -3.9277   -1.8360 O   0  0  0  0  0  0  0  0  0  0  0  0
    2.0272   -2.3934   -0.8452 C   0  0  0  0  0  0  0  0  0  0  0  0
    2.9780   -1.4714   -0.5757 C   0  0  0  0  0  0  0  0  0  0  0  0
    2.6832   -0.1486    0.0583 C   0  0  0  0  0  0  0  0  0  0  0  0
    1.4256    0.1614    0.6140 C   0  0  0  0  0  0  0  0  0  0  0  0
    1.1362    1.4412    1.1166 C   0  0  0  0  0  0  0  0  0  0  0  0
   -0.2045    1.6768    1.5786 N   0  0  0  0  0  0  0  0  0  0  0  0
   -0.7822    2.9389    1.9358 C   0  0  0  0  0  0  0  0  0  0  0  0
   -0.0977    3.8566    2.7518 C   0  0  0  0  0  0  0  0  0  0  0  0
   -0.6919    5.0733    3.0891 C   0  0  0  0  0  0  0  0  0  0  0  0
   -1.9367    5.3776    2.6421 N   0  0  0  0  0  0  0  0  0  0  0  0
   -2.6484    4.5196    1.8680 C   0  0  0  0  0  0  0  0  0  0  0  0
   -2.0964    3.2683    1.4958 C   0  0  0  0  0  0  0  0  0  0  0  0
   -2.8645    2.4068    0.6760 C   0  0  0  0  0  0  0  0  0  0  0  0
   -4.1416    2.7800    0.2558 C   0  0  0  0  0  0  0  0  0  0  0  0
   -4.6750    4.0121    0.6319 C   0  0  0  0  0  0  0  0  0  0  0  0
   -6.4208    4.5098    0.0395 Br  0  0  0  0  0  0  0  0  0  0  0  0
   -3.9310    4.8808    1.4336 C   0  0  0  0  0  0  0  0  0  0  0  0
    2.1421    2.4298    1.0558 C   0  0  0  0  0  0  0  0  0  0  0  0
    3.4060    2.1172    0.5460 C   0  0  0  0  0  0  0  0  0  0  0  0
    3.6771    0.8392    0.0531 C   0  0  0  0  0  0  0  0  0  0  0  0
   -2.1451   -5.0812   -1.9583 H   0  0  0  0  0  0  0  0  0  0  0  0
   -0.4664   -3.5068   -1.1991 H   0  0  0  0  0  0  0  0  0  0  0  0
    2.6315   -6.0055   -2.9231 H   0  0  0  0  0  0  0  0  0  0  0  0
    0.8987   -7.5730   -3.6747 H   0  0  0  0  0  0  0  0  0  0  0  0
    1.0112   -2.1906   -0.5806 H   0  0  0  0  0  0  0  0  0  0  0  0
    3.9999   -1.6643   -0.8915 H   0  0  0  0  0  0  0  0  0  0  0  0
    0.6391   -0.5727    0.6431 H   0  0  0  0  0  0  0  0  0  0  0  0
   -0.8528    0.8876    1.4678 H   0  0  0  0  0  0  0  0  0  0  0  0
    0.8770    3.6300    3.1577 H   0  0  0  0  0  0  0  0  0  0  0  0
   -0.1637    5.7760    3.7191 H   0  0  0  0  0  0  0  0  0  0  0  0
   -2.4992    1.4495    0.3413 H   0  0  0  0  0  0  0  0  0  0  0  0
   -4.7155    2.1080   -0.3699 H   0  0  0  0  0  0  0  0  0  0  0  0
   -4.3488    5.8386    1.7171 H   0  0  0  0  0  0  0  0  0  0  0  0
    1.9788    3.4418    1.3722 H   0  0  0  0  0  0  0  0  0  0  0  0
    4.1732    2.8800    0.5074 H   0  0  0  0  0  0  0  0  0  0  0  0
    4.6537    0.6315   -0.3672 H   0  0  0  0  0  0  0  0  0  0  0  0
  2  1  1  0  0  0  0
  3  2  2  0  0  0  0
  3 30  1  0  0  0  0
  4  3  1  0  0  0  0
  4 31  1  0  0  0  0
  5  4  2  0  0  0  0
  6  5  1  0  0  0  0
  6 32  1  0  0  0  0
  7  6  2  0  0  0  0
  7  2  1  0  0  0  0
  7 33  1  0  0  0  0
  8  5  1  0  0  0  0
  9  8  2  0  0  0  0
 10  8  1  0  0  0  0
 10 34  1  0  0  0  0
 11 10  2  0  0  0  0
 11 35  1  0  0  0  0
 12 11  1  0  0  0  0
 13 12  2  0  0  0  0
 13 36  1  0  0  0  0
 14 13  1  0  0  0  0
 15 14  1  0  0  0  0
 15 37  1  0  0  0  0
 16 15  1  0  0  0  0
 17 16  2  0  0  0  0
 17 38  1  0  0  0  0
 18 17  1  0  0  0  0
 18 39  1  0  0  0  0
 19 18  2  0  0  0  0
 20 19  1  0  0  0  0
 21 20  2  0  0  0  0
 21 16  1  0  0  0  0
 22 21  1  0  0  0  0
 22 40  1  0  0  0  0
 23 22  2  0  0  0  0
 23 41  1  0  0  0  0
 24 23  1  0  0  0  0
 25 24  1  0  0  0  0
 26 24  2  0  0  0  0
 26 20  1  0  0  0  0
 26 42  1  0  0  0  0
 27 14  2  0  0  0  0
 27 43  1  0  0  0  0
 28 27  1  0  0  0  0
 28 44  1  0  0  0  0
 29 28  2  0  0  0  0
 29 12  1  0  0  0  0
 29 45  1  0  0  0  0
M  END
>  <MOL Chiral Flag>
0

>  <energy>
119.51845657218522

$$$$
