>342.sdf
 OpenBabel10062212513D

 57 60  0  0  0  0  0  0  0  0999 V2000
    3.3938   -0.9730    2.2777 H   0  0  0  0  0  0  0  0  0  0  0  0
    3.4454   -0.9215    1.2470 N   0  3  0  0  0  0  0  0  0  0  0  0
    2.5090   -1.4792    0.5427 C   0  0  0  0  0  0  0  0  0  0  0  0
    1.4295   -2.1463    1.1865 N   0  0  0  0  0  0  0  0  0  0  0  0
    0.3224   -2.6793    0.4049 C   0  0  1  0  0  0  0  0  0  0  0  0
    0.6332   -3.6515   -0.0424 H   0  0  0  0  0  0  0  0  0  0  0  0
   -0.8666   -2.9659    1.3446 C   0  0  0  0  0  0  0  0  0  0  0  0
   -2.1100   -3.5579    0.6626 C   0  0  0  0  0  0  0  0  0  0  0  0
   -3.0926   -4.0589    1.7345 C   0  0  0  0  0  0  0  0  0  0  0  0
   -4.3866   -4.6150    1.1422 C   0  0  0  0  0  0  0  0  0  0  0  0
   -5.1456   -5.1785    2.1935 O   0  0  0  0  0  0  0  0  0  0  0  0
   -6.5057   -5.3293    1.8346 C   0  0  0  0  0  0  0  0  0  0  0  0
   -6.9741   -6.7055    2.2243 C   0  0  0  0  0  0  0  0  0  0  0  0
   -7.9772   -6.8741    3.1952 C   0  0  0  0  0  0  0  0  0  0  0  0
   -8.4113   -8.1581    3.5425 C   0  0  0  0  0  0  0  0  0  0  0  0
   -7.8523   -9.2790    2.9225 C   0  0  0  0  0  0  0  0  0  0  0  0
   -6.8551   -9.1190    1.9565 C   0  0  0  0  0  0  0  0  0  0  0  0
   -6.4143   -7.8377    1.6086 C   0  0  0  0  0  0  0  0  0  0  0  0
    0.0375   -1.7115   -0.7674 C   0  0  0  0  0  0  0  0  0  0  0  0
    1.3149   -1.6868   -1.6425 C   0  0  1  0  0  0  0  0  0  0  0  0
    1.4738   -2.7147   -2.0407 H   0  0  0  0  0  0  0  0  0  0  0  0
    1.3108   -0.7273   -2.8454 C   0  0  0  0  0  0  0  0  0  0  0  0
    2.5164    0.2058   -2.6417 C   0  0  0  0  0  0  0  0  0  0  0  0
    3.3885   -0.4512   -1.5687 C   0  0  1  0  0  0  0  0  0  0  0  0
    4.1700   -1.0919   -2.0354 H   0  0  0  0  0  0  0  0  0  0  0  0
    4.0014    0.5797   -0.6001 C   0  0  0  0  0  0  0  0  0  0  0  0
    4.5328   -0.1727    0.6268 C   0  0  1  0  0  0  0  0  0  0  0  0
    5.3186   -0.8822    0.2859 H   0  0  0  0  0  0  0  0  0  0  0  0
    5.1394    0.8064    1.6399 C   0  0  0  0  0  0  0  0  0  0  0  0
    2.4961   -1.3479   -0.8854 N   0  0  0  0  0  0  0  0  0  0  0  0
    1.3654   -2.1115    2.2166 H   0  0  0  0  0  0  0  0  0  0  0  0
   -1.1592   -2.0400    1.8868 H   0  0  0  0  0  0  0  0  0  0  0  0
   -0.4961   -3.7037    2.0917 H   0  0  0  0  0  0  0  0  0  0  0  0
   -2.5885   -2.7826    0.0257 H   0  0  0  0  0  0  0  0  0  0  0  0
   -1.8187   -4.4213    0.0257 H   0  0  0  0  0  0  0  0  0  0  0  0
   -3.3502   -3.2346    2.4356 H   0  0  0  0  0  0  0  0  0  0  0  0
   -2.5925   -4.8687    2.3114 H   0  0  0  0  0  0  0  0  0  0  0  0
   -4.9172   -3.7675    0.6470 H   0  0  0  0  0  0  0  0  0  0  0  0
   -4.1472   -5.4088    0.4008 H   0  0  0  0  0  0  0  0  0  0  0  0
   -7.0873   -4.5463    2.3672 H   0  0  0  0  0  0  0  0  0  0  0  0
   -6.7055   -5.2132    0.7427 H   0  0  0  0  0  0  0  0  0  0  0  0
   -8.4204   -6.0147    3.6825 H   0  0  0  0  0  0  0  0  0  0  0  0
   -9.1829   -8.2843    4.2912 H   0  0  0  0  0  0  0  0  0  0  0  0
   -8.1923  -10.2714    3.1901 H   0  0  0  0  0  0  0  0  0  0  0  0
   -6.4247   -9.9882    1.4759 H   0  0  0  0  0  0  0  0  0  0  0  0
   -5.6432   -7.7249    0.8567 H   0  0  0  0  0  0  0  0  0  0  0  0
   -0.2003   -0.6989   -0.3750 H   0  0  0  0  0  0  0  0  0  0  0  0
   -0.8101   -2.0702   -1.3890 H   0  0  0  0  0  0  0  0  0  0  0  0
    1.4387   -1.3250   -3.7725 H   0  0  0  0  0  0  0  0  0  0  0  0
    0.3769   -0.1270   -2.9354 H   0  0  0  0  0  0  0  0  0  0  0  0
    3.0602    0.4874   -3.5720 H   0  0  0  0  0  0  0  0  0  0  0  0
    2.0928    1.1366   -2.2123 H   0  0  0  0  0  0  0  0  0  0  0  0
    4.7920    1.1696   -1.1116 H   0  0  0  0  0  0  0  0  0  0  0  0
    3.2097    1.2779   -0.2436 H   0  0  0  0  0  0  0  0  0  0  0  0
    4.3620    1.5170    1.9997 H   0  0  0  0  0  0  0  0  0  0  0  0
    5.9642    1.3866    1.1762 H   0  0  0  0  0  0  0  0  0  0  0  0
    5.5416    0.2536    2.5149 H   0  0  0  0  0  0  0  0  0  0  0  0
  2  1  1  0  0  0  0
  3  2  2  0  0  0  0
  4  3  1  0  0  0  0
  4 31  1  0  0  0  0
  5  4  1  0  0  0  0
  5  6  1  6  0  0  0
  7  5  1  0  0  0  0
  7 32  1  0  0  0  0
  7 33  1  0  0  0  0
  8  7  1  0  0  0  0
  8 34  1  0  0  0  0
  8 35  1  0  0  0  0
  9  8  1  0  0  0  0
  9 36  1  0  0  0  0
  9 37  1  0  0  0  0
 10  9  1  0  0  0  0
 10 38  1  0  0  0  0
 10 39  1  0  0  0  0
 11 10  1  0  0  0  0
 12 11  1  0  0  0  0
 12 40  1  0  0  0  0
 12 41  1  0  0  0  0
 13 12  1  0  0  0  0
 14 13  2  0  0  0  0
 14 42  1  0  0  0  0
 15 14  1  0  0  0  0
 15 43  1  0  0  0  0
 16 15  2  0  0  0  0
 16 44  1  0  0  0  0
 17 16  1  0  0  0  0
 17 45  1  0  0  0  0
 18 17  2  0  0  0  0
 18 13  1  0  0  0  0
 18 46  1  0  0  0  0
 19  5  1  0  0  0  0
 19 47  1  0  0  0  0
 19 48  1  0  0  0  0
 20 19  1  0  0  0  0
 20 21  1  6  0  0  0
 22 20  1  0  0  0  0
 22 49  1  0  0  0  0
 22 50  1  0  0  0  0
 23 22  1  0  0  0  0
 23 51  1  0  0  0  0
 23 52  1  0  0  0  0
 24 23  1  0  0  0  0
 24 25  1  6  0  0  0
 26 24  1  0  0  0  0
 26 53  1  0  0  0  0
 26 54  1  0  0  0  0
 27 26  1  0  0  0  0
 27  2  1  0  0  0  0
 27 28  1  6  0  0  0
 29 27  1  0  0  0  0
 29 55  1  0  0  0  0
 29 56  1  0  0  0  0
 29 57  1  0  0  0  0
 30 24  1  0  0  0  0
 30  3  1  0  0  0  0
 30 20  1  0  0  0  0
M  CHG  1   2   1
M  END
>  <MOL Chiral Flag>
0

>  <energy>
-114.70928142847748

$$$$
