>358.sdf
 OpenBabel10062213003D

 58 63  0  0  0  0  0  0  0  0999 V2000
    2.7489    0.3152   -0.8176 C   0  0  0  0  0  0  0  0  0  0  0  0
    1.8055   -0.7687   -1.1254 N   0  0  0  0  0  0  0  0  0  0  0  0
    0.4578   -0.7220   -0.9832 C   0  0  0  0  0  0  0  0  0  0  0  0
   -0.2138    0.4234   -0.5025 N   0  0  0  0  0  0  0  0  0  0  0  0
   -1.4313    0.4320   -0.2359 N   0  0  0  0  0  0  0  0  0  0  0  0
   -2.0258    1.6459    0.2039 C   0  0  0  0  0  0  0  0  0  0  0  0
   -1.8703    2.8454   -0.5455 C   0  0  0  0  0  0  0  0  0  0  0  0
   -1.2619    2.8536   -1.8221 C   0  0  0  0  0  0  0  0  0  0  0  0
   -1.1251    4.0463   -2.5347 C   0  0  0  0  0  0  0  0  0  0  0  0
   -1.5851    5.2455   -1.9936 C   0  0  0  0  0  0  0  0  0  0  0  0
   -2.1901    5.2609   -0.7360 C   0  0  0  0  0  0  0  0  0  0  0  0
   -2.3406    4.0695   -0.0075 C   0  0  0  0  0  0  0  0  0  0  0  0
   -2.9416    4.0919    1.2554 C   0  0  0  0  0  0  0  0  0  0  0  0
   -3.1024    2.9136    1.9813 C   0  0  0  0  0  0  0  0  0  0  0  0
   -2.6794    1.6837    1.4611 C   0  0  0  0  0  0  0  0  0  0  0  0
   -2.8585    0.5072    2.2515 N   0  0  0  0  0  0  0  0  0  0  0  0
   -3.3205   -0.7441    1.7333 C   0  0  0  0  0  0  0  0  0  0  0  0
   -3.9546   -0.8382    0.4748 C   0  0  0  0  0  0  0  0  0  0  0  0
   -4.4458   -2.0649    0.0210 C   0  0  0  0  0  0  0  0  0  0  0  0
   -4.3114   -3.2087    0.8094 C   0  0  0  0  0  0  0  0  0  0  0  0
   -3.6919   -3.1271    2.0584 C   0  0  0  0  0  0  0  0  0  0  0  0
   -3.2070   -1.9003    2.5234 C   0  0  0  0  0  0  0  0  0  0  0  0
   -0.1542   -1.8729   -1.3620 N   0  0  0  0  0  0  0  0  0  0  0  0
    0.8670   -2.6557   -1.7696 C   0  0  0  0  0  0  0  0  0  0  0  0
    0.8065   -3.9475   -2.2829 C   0  0  0  0  0  0  0  0  0  0  0  0
    2.0178   -4.5610   -2.6615 C   0  0  0  0  0  0  0  0  0  0  0  0
    3.2462   -3.8708   -2.5157 C   0  0  0  0  0  0  0  0  0  0  0  0
    3.2700   -2.5640   -1.9910 C   0  0  0  0  0  0  0  0  0  0  0  0
    2.0521   -1.9900   -1.6281 C   0  0  0  0  0  0  0  0  0  0  0  0
    3.6507    0.0508    0.3728 C   0  0  0  0  0  0  0  0  0  0  0  0
    3.6185   -1.1497    1.1140 C   0  0  0  0  0  0  0  0  0  0  0  0
    4.4650   -1.3199    2.2156 C   0  0  0  0  0  0  0  0  0  0  0  0
    5.3400   -0.2995    2.5949 C   0  0  0  0  0  0  0  0  0  0  0  0
    5.3744    0.8940    1.8727 C   0  0  0  0  0  0  0  0  0  0  0  0
    4.5376    1.0682    0.7673 C   0  0  0  0  0  0  0  0  0  0  0  0
    3.3559    0.5371   -1.7211 H   0  0  0  0  0  0  0  0  0  0  0  0
    2.1770    1.2350   -0.5685 H   0  0  0  0  0  0  0  0  0  0  0  0
   -0.9035    1.9454   -2.2845 H   0  0  0  0  0  0  0  0  0  0  0  0
   -0.6617    4.0386   -3.5132 H   0  0  0  0  0  0  0  0  0  0  0  0
   -1.4741    6.1660   -2.5519 H   0  0  0  0  0  0  0  0  0  0  0  0
   -2.5414    6.2020   -0.3304 H   0  0  0  0  0  0  0  0  0  0  0  0
   -3.2908    5.0256    1.6801 H   0  0  0  0  0  0  0  0  0  0  0  0
   -3.5739    2.9536    2.9553 H   0  0  0  0  0  0  0  0  0  0  0  0
   -2.8066    0.6023    3.2777 H   0  0  0  0  0  0  0  0  0  0  0  0
   -4.0964    0.0356   -0.1456 H   0  0  0  0  0  0  0  0  0  0  0  0
   -4.9404   -2.1255   -0.9400 H   0  0  0  0  0  0  0  0  0  0  0  0
   -4.6957   -4.1566    0.4558 H   0  0  0  0  0  0  0  0  0  0  0  0
   -3.5939   -4.0142    2.6705 H   0  0  0  0  0  0  0  0  0  0  0  0
   -2.7371   -1.8492    3.4976 H   0  0  0  0  0  0  0  0  0  0  0  0
   -0.1387   -4.4626   -2.3945 H   0  0  0  0  0  0  0  0  0  0  0  0
    2.0093   -5.5634   -3.0692 H   0  0  0  0  0  0  0  0  0  0  0  0
    4.1711   -4.3484   -2.8120 H   0  0  0  0  0  0  0  0  0  0  0  0
    4.2022   -2.0259   -1.8792 H   0  0  0  0  0  0  0  0  0  0  0  0
    2.9456   -1.9528    0.8548 H   0  0  0  0  0  0  0  0  0  0  0  0
    4.4387   -2.2431    2.7799 H   0  0  0  0  0  0  0  0  0  0  0  0
    5.9890   -0.4319    3.4511 H   0  0  0  0  0  0  0  0  0  0  0  0
    6.0477    1.6875    2.1709 H   0  0  0  0  0  0  0  0  0  0  0  0
    4.5709    2.0027    0.2203 H   0  0  0  0  0  0  0  0  0  0  0  0
  1 36  1  0  0  0  0
  1 37  1  0  0  0  0
  2  1  1  0  0  0  0
  3  2  1  0  0  0  0
  4  3  1  0  0  0  0
  5  4  2  0  0  0  0
  6  5  1  0  0  0  0
  7  6  2  0  0  0  0
  8  7  1  0  0  0  0
  8 38  1  0  0  0  0
  9  8  2  0  0  0  0
  9 39  1  0  0  0  0
 10  9  1  0  0  0  0
 10 40  1  0  0  0  0
 11 10  2  0  0  0  0
 11 41  1  0  0  0  0
 12 11  1  0  0  0  0
 12  7  1  0  0  0  0
 13 12  2  0  0  0  0
 13 42  1  0  0  0  0
 14 13  1  0  0  0  0
 14 43  1  0  0  0  0
 15 14  2  0  0  0  0
 15  6  1  0  0  0  0
 16 15  1  0  0  0  0
 16 44  1  0  0  0  0
 17 16  1  0  0  0  0
 18 17  2  0  0  0  0
 18 45  1  0  0  0  0
 19 18  1  0  0  0  0
 19 46  1  0  0  0  0
 20 19  2  0  0  0  0
 20 47  1  0  0  0  0
 21 20  1  0  0  0  0
 21 48  1  0  0  0  0
 22 21  2  0  0  0  0
 22 17  1  0  0  0  0
 22 49  1  0  0  0  0
 23  3  2  0  0  0  0
 24 23  1  0  0  0  0
 25 24  2  0  0  0  0
 25 50  1  0  0  0  0
 26 25  1  0  0  0  0
 26 51  1  0  0  0  0
 27 26  2  0  0  0  0
 27 52  1  0  0  0  0
 28 27  1  0  0  0  0
 28 53  1  0  0  0  0
 29 28  2  0  0  0  0
 29  2  1  0  0  0  0
 29 24  1  0  0  0  0
 30  1  1  0  0  0  0
 31 30  2  0  0  0  0
 31 54  1  0  0  0  0
 32 31  1  0  0  0  0
 32 55  1  0  0  0  0
 33 32  2  0  0  0  0
 33 56  1  0  0  0  0
 34 33  1  0  0  0  0
 34 57  1  0  0  0  0
 35 34  2  0  0  0  0
 35 30  1  0  0  0  0
 35 58  1  0  0  0  0
M  END
>  <MOL Chiral Flag>
0

>  <energy>
117.99110915022163

$$$$
