>374.sdf
 OpenBabel10062213093D

 47 51  0  0  0  0  0  0  0  0999 V2000
    5.8178   -0.4021   -0.3168 C   0  0  0  0  0  0  0  0  0  0  0  0
    4.7031   -0.4013    0.7253 C   0  0  0  0  0  0  0  0  0  0  0  0
    3.4585    0.2514    0.1801 C   0  0  0  0  0  0  0  0  0  0  0  0
    2.3539   -0.5362   -0.1624 C   0  0  0  0  0  0  0  0  0  0  0  0
    1.1995    0.0461   -0.7023 C   0  0  0  0  0  0  0  0  0  0  0  0
    1.1326    1.4480   -0.8717 C   0  0  0  0  0  0  0  0  0  0  0  0
   -0.0546    2.0702   -1.3665 N   0  0  0  0  0  0  0  0  0  0  0  0
   -1.2872    1.3150   -1.5151 C   0  0  1  0  0  0  0  0  0  0  0  0
   -0.9880   -0.1357   -2.0083 C   0  0  2  0  0  0  0  0  0  0  0  0
   -2.2465   -1.0400   -1.9274 C   0  0  0  0  0  0  0  0  0  0  0  0
   -2.0739   -1.6266   -0.5677 C   0  0  0  0  0  0  0  0  0  0  0  0
   -3.0406   -2.2918    0.1869 C   0  0  0  0  0  0  0  0  0  0  0  0
   -2.6760   -2.8262    1.4325 C   0  0  0  0  0  0  0  0  0  0  0  0
   -1.3513   -2.7078    1.8922 C   0  0  0  0  0  0  0  0  0  0  0  0
   -0.3883   -2.0567    1.1074 C   0  0  0  0  0  0  0  0  0  0  0  0
   -0.7771   -1.5104   -0.1207 C   0  0  0  0  0  0  0  0  0  0  0  0
    0.0721   -0.8512   -1.1489 C   0  0  2  0  0  0  0  0  0  0  0  0
   -2.1643    1.4700   -0.2823 C   0  0  0  0  0  0  0  0  0  0  0  0
   -3.4697    1.8289   -0.4537 N   0  0  0  0  0  0  0  0  0  0  0  0
   -4.3253    1.9666    0.5930 C   0  0  0  0  0  0  0  0  0  0  0  0
   -3.8744    1.7582    1.8958 C   0  0  0  0  0  0  0  0  0  0  0  0
   -2.5415    1.4067    2.1087 C   0  0  0  0  0  0  0  0  0  0  0  0
   -1.6791    1.2560    1.0206 C   0  0  0  0  0  0  0  0  0  0  0  0
    2.2395    2.2363   -0.5157 C   0  0  0  0  0  0  0  0  0  0  0  0
    3.3988    1.6412   -0.0056 C   0  0  0  0  0  0  0  0  0  0  0  0
    5.4889   -0.9781   -1.2103 H   0  0  0  0  0  0  0  0  0  0  0  0
    6.7192   -0.8969    0.1020 H   0  0  0  0  0  0  0  0  0  0  0  0
    6.0815    0.6297   -0.6271 H   0  0  0  0  0  0  0  0  0  0  0  0
    4.5033   -1.4641    0.9844 H   0  0  0  0  0  0  0  0  0  0  0  0
    5.0224    0.1167    1.6554 H   0  0  0  0  0  0  0  0  0  0  0  0
    2.4073   -1.6117   -0.0468 H   0  0  0  0  0  0  0  0  0  0  0  0
   -0.1125    3.1000   -1.3551 H   0  0  0  0  0  0  0  0  0  0  0  0
   -1.8708    1.7562   -2.3549 H   0  0  0  0  0  0  0  0  0  0  0  0
   -0.6122   -0.0068   -3.0490 H   0  0  0  0  0  0  0  0  0  0  0  0
   -3.1805   -0.4612   -2.0902 H   0  0  0  0  0  0  0  0  0  0  0  0
   -2.1902   -1.8864   -2.6453 H   0  0  0  0  0  0  0  0  0  0  0  0
   -4.0530   -2.3943   -0.1807 H   0  0  0  0  0  0  0  0  0  0  0  0
   -3.4118   -3.3414    2.0355 H   0  0  0  0  0  0  0  0  0  0  0  0
   -1.0703   -3.1327    2.8470 H   0  0  0  0  0  0  0  0  0  0  0  0
    0.6325   -1.9875    1.4537 H   0  0  0  0  0  0  0  0  0  0  0  0
    0.4961   -1.6680   -1.7765 H   0  0  0  0  0  0  0  0  0  0  0  0
   -5.3574    2.2374    0.4123 H   0  0  0  0  0  0  0  0  0  0  0  0
   -4.5521    1.8706    2.7322 H   0  0  0  0  0  0  0  0  0  0  0  0
   -2.1781    1.2498    3.1158 H   0  0  0  0  0  0  0  0  0  0  0  0
   -0.6487    0.9849    1.1969 H   0  0  0  0  0  0  0  0  0  0  0  0
    2.2024    3.3119   -0.6350 H   0  0  0  0  0  0  0  0  0  0  0  0
    4.2455    2.2633    0.2582 H   0  0  0  0  0  0  0  0  0  0  0  0
  1 26  1  0  0  0  0
  1 27  1  0  0  0  0
  1 28  1  0  0  0  0
  2  1  1  0  0  0  0
  2 29  1  0  0  0  0
  2 30  1  0  0  0  0
  3  2  1  0  0  0  0
  4  3  2  0  0  0  0
  4 31  1  0  0  0  0
  5  4  1  0  0  0  0
  6  5  2  0  0  0  0
  7  6  1  0  0  0  0
  7 32  1  0  0  0  0
  8  7  1  0  0  0  0
  8 33  1  6  0  0  0
  9  8  1  0  0  0  0
  9 34  1  6  0  0  0
 10  9  1  0  0  0  0
 10 35  1  0  0  0  0
 10 36  1  0  0  0  0
 11 10  1  0  0  0  0
 12 11  2  0  0  0  0
 12 37  1  0  0  0  0
 13 12  1  0  0  0  0
 13 38  1  0  0  0  0
 14 13  2  0  0  0  0
 14 39  1  0  0  0  0
 15 14  1  0  0  0  0
 15 40  1  0  0  0  0
 16 15  2  0  0  0  0
 16 11  1  0  0  0  0
 17 16  1  0  0  0  0
 17  5  1  0  0  0  0
 17  9  1  0  0  0  0
 17 41  1  6  0  0  0
 18  8  1  0  0  0  0
 19 18  2  0  0  0  0
 20 19  1  0  0  0  0
 20 42  1  0  0  0  0
 21 20  2  0  0  0  0
 21 43  1  0  0  0  0
 22 21  1  0  0  0  0
 22 44  1  0  0  0  0
 23 22  2  0  0  0  0
 23 18  1  0  0  0  0
 23 45  1  0  0  0  0
 24  6  1  0  0  0  0
 24 46  1  0  0  0  0
 25 24  2  0  0  0  0
 25  3  1  0  0  0  0
 25 47  1  0  0  0  0
M  END
>  <MOL Chiral Flag>
0

>  <energy>
73.639515140715531

$$$$
