>379.sdf
 OpenBabel10062213113D

 39 40  0  0  0  0  0  0  0  0999 V2000
    4.3282   -3.1333    0.2162 C   0  0  0  0  0  0  0  0  0  0  0  0
    4.2466   -1.6217    0.4603 C   0  0  0  0  0  0  0  0  0  0  0  0
    3.7193   -1.3511    1.8792 C   0  0  0  0  0  0  0  0  0  0  0  0
    3.3562   -0.9810   -0.6152 C   0  0  0  0  0  0  0  0  0  0  0  0
    3.1942    0.3753   -0.3723 O   0  0  0  0  0  0  0  0  0  0  0  0
    1.9584    0.9155   -0.2813 C   0  0  0  0  0  0  0  0  0  0  0  0
    0.9766    0.6028   -1.2269 C   0  0  0  0  0  0  0  0  0  0  0  0
   -0.3220    1.0551   -1.0624 C   0  0  0  0  0  0  0  0  0  0  0  0
   -0.6764    1.8454    0.0492 C   0  0  0  0  0  0  0  0  0  0  0  0
   -2.1001    2.2611    0.1772 C   0  0  0  0  0  0  0  0  0  0  0  0
   -2.3705    3.3766    0.6021 O   0  0  0  0  0  0  0  0  0  0  0  0
   -3.2105    1.3585   -0.2450 C   0  0  0  0  0  0  0  0  0  0  0  0
   -3.0767   -0.0469   -0.1636 C   0  0  0  0  0  0  0  0  0  0  0  0
   -4.1354   -0.8810   -0.5367 C   0  0  0  0  0  0  0  0  0  0  0  0
   -5.3318   -0.3281   -1.0128 C   0  0  0  0  0  0  0  0  0  0  0  0
   -6.3571   -1.1204   -1.3863 O   0  0  0  0  0  0  0  0  0  0  0  0
   -5.4670    1.0616   -1.0976 C   0  0  0  0  0  0  0  0  0  0  0  0
   -4.4204    1.8990   -0.7024 C   0  0  0  0  0  0  0  0  0  0  0  0
    0.3382    2.2198    0.9738 C   0  0  0  0  0  0  0  0  0  0  0  0
    0.0831    2.9736    2.0686 O   0  0  0  0  0  0  0  0  0  0  0  0
    1.6450    1.7489    0.7951 C   0  0  0  0  0  0  0  0  0  0  0  0
    4.7122   -3.3384   -0.8052 H   0  0  0  0  0  0  0  0  0  0  0  0
    3.3218   -3.5981    0.3158 H   0  0  0  0  0  0  0  0  0  0  0  0
    5.0108   -3.6070    0.9520 H   0  0  0  0  0  0  0  0  0  0  0  0
    5.2655   -1.1847    0.3792 H   0  0  0  0  0  0  0  0  0  0  0  0
    2.6917   -1.7535    2.0084 H   0  0  0  0  0  0  0  0  0  0  0  0
    4.3865   -1.8271    2.6296 H   0  0  0  0  0  0  0  0  0  0  0  0
    3.7044   -0.2607    2.0894 H   0  0  0  0  0  0  0  0  0  0  0  0
    2.3720   -1.5087   -0.5986 H   0  0  0  0  0  0  0  0  0  0  0  0
    3.8054   -1.1277   -1.6194 H   0  0  0  0  0  0  0  0  0  0  0  0
    1.2191   -0.0118   -2.0864 H   0  0  0  0  0  0  0  0  0  0  0  0
   -1.0588    0.7902   -1.8103 H   0  0  0  0  0  0  0  0  0  0  0  0
   -2.1667   -0.4974    0.2144 H   0  0  0  0  0  0  0  0  0  0  0  0
   -4.0270   -1.9565   -0.4534 H   0  0  0  0  0  0  0  0  0  0  0  0
   -6.3007   -2.0855   -1.3365 H   0  0  0  0  0  0  0  0  0  0  0  0
   -6.3864    1.4940   -1.4682 H   0  0  0  0  0  0  0  0  0  0  0  0
   -4.5437    2.9718   -0.7748 H   0  0  0  0  0  0  0  0  0  0  0  0
   -0.7935    3.2817    2.3214 H   0  0  0  0  0  0  0  0  0  0  0  0
    2.4091    1.9896    1.5234 H   0  0  0  0  0  0  0  0  0  0  0  0
  1 22  1  0  0  0  0
  1 23  1  0  0  0  0
  1 24  1  0  0  0  0
  2  1  1  0  0  0  0
  2 25  1  0  0  0  0
  3  2  1  0  0  0  0
  3 26  1  0  0  0  0
  3 27  1  0  0  0  0
  3 28  1  0  0  0  0
  4  2  1  0  0  0  0
  4 29  1  0  0  0  0
  4 30  1  0  0  0  0
  5  4  1  0  0  0  0
  6  5  1  0  0  0  0
  7  6  2  0  0  0  0
  7 31  1  0  0  0  0
  8  7  1  0  0  0  0
  8 32  1  0  0  0  0
  9  8  2  0  0  0  0
 10  9  1  0  0  0  0
 11 10  2  0  0  0  0
 12 10  1  0  0  0  0
 13 12  2  0  0  0  0
 13 33  1  0  0  0  0
 14 13  1  0  0  0  0
 14 34  1  0  0  0  0
 15 14  2  0  0  0  0
 16 15  1  0  0  0  0
 16 35  1  0  0  0  0
 17 15  1  0  0  0  0
 17 36  1  0  0  0  0
 18 17  2  0  0  0  0
 18 12  1  0  0  0  0
 18 37  1  0  0  0  0
 19  9  1  0  0  0  0
 20 19  1  0  0  0  0
 20 38  1  0  0  0  0
 21 19  2  0  0  0  0
 21  6  1  0  0  0  0
 21 39  1  0  0  0  0
M  END
>  <MOL Chiral Flag>
0

>  <energy>
62.751280583523069

$$$$
