>38.sdf
 OpenBabel10052218043D

 48 50  0  0  0  0  0  0  0  0999 V2000
   -3.9701    3.3394   -0.3257 C   0  0  0  0  0  0  0  0  0  0  0  0
   -4.5999    2.2037    0.1439 O   0  0  0  0  0  0  0  0  0  0  0  0
   -4.0458    0.9610    0.2073 C   0  0  0  0  0  0  0  0  0  0  0  0
   -2.7333    0.7152   -0.2360 C   0  0  0  0  0  0  0  0  0  0  0  0
   -2.1627   -0.5603   -0.1188 C   0  0  0  0  0  0  0  0  0  0  0  0
   -2.9314   -1.6056    0.4090 C   0  0  0  0  0  0  0  0  0  0  0  0
   -4.2525   -1.3877    0.8513 C   0  0  0  0  0  0  0  0  0  0  0  0
   -4.9909   -2.4059    1.3710 O   0  0  0  0  0  0  0  0  0  0  0  0
   -4.5999   -3.7271    1.4579 C   0  0  0  0  0  0  0  0  0  0  0  0
   -4.8065   -0.0803    0.7652 C   0  0  0  0  0  0  0  0  0  0  0  0
   -6.0509    0.2381    1.2263 O   0  0  0  0  0  0  0  0  0  0  0  0
   -6.8995   -0.5574    1.9678 C   0  0  0  0  0  0  0  0  0  0  0  0
   -0.7737   -0.7835   -0.4420 N   0  0  0  0  0  0  0  0  0  0  0  0
    0.1153    0.1020   -0.9338 C   0  0  0  0  0  0  0  0  0  0  0  0
    1.3506   -0.5009   -0.8628 C   0  0  0  0  0  0  0  0  0  0  0  0
    1.1787   -1.7399   -0.3603 N   0  0  0  0  0  0  0  0  0  0  0  0
   -0.1162   -1.8904   -0.1251 N   0  0  0  0  0  0  0  0  0  0  0  0
    2.6607    0.1303   -1.1194 C   0  0  0  0  0  0  0  0  0  0  0  0
    3.8066   -0.4015   -0.5151 C   0  0  0  0  0  0  0  0  0  0  0  0
    5.0578    0.2392   -0.6411 C   0  0  0  0  0  0  0  0  0  0  0  0
    6.1548   -0.2408    0.0053 O   0  0  0  0  0  0  0  0  0  0  0  0
    6.1610   -1.2806    0.9144 C   0  0  0  0  0  0  0  0  0  0  0  0
    5.1536    1.4184   -1.4318 C   0  0  0  0  0  0  0  0  0  0  0  0
    6.3087    2.1224   -1.6028 O   0  0  0  0  0  0  0  0  0  0  0  0
    7.5253    1.8916   -0.9954 C   0  0  0  0  0  0  0  0  0  0  0  0
    4.0029    1.9174   -2.0558 C   0  0  0  0  0  0  0  0  0  0  0  0
    2.7665    1.2944   -1.8901 C   0  0  0  0  0  0  0  0  0  0  0  0
   -3.0661    3.5583    0.2829 H   0  0  0  0  0  0  0  0  0  0  0  0
   -4.6644    4.1999   -0.2406 H   0  0  0  0  0  0  0  0  0  0  0  0
   -3.6925    3.2133   -1.3938 H   0  0  0  0  0  0  0  0  0  0  0  0
   -2.1475    1.5277   -0.6316 H   0  0  0  0  0  0  0  0  0  0  0  0
   -2.4854   -2.5861    0.4968 H   0  0  0  0  0  0  0  0  0  0  0  0
   -3.6954   -3.8243    2.0950 H   0  0  0  0  0  0  0  0  0  0  0  0
   -5.4186   -4.3155    1.9200 H   0  0  0  0  0  0  0  0  0  0  0  0
   -4.4034   -4.1354    0.4432 H   0  0  0  0  0  0  0  0  0  0  0  0
   -7.2280   -1.4392    1.3808 H   0  0  0  0  0  0  0  0  0  0  0  0
   -6.4031   -0.8674    2.9135 H   0  0  0  0  0  0  0  0  0  0  0  0
   -7.8006    0.0320    2.2330 H   0  0  0  0  0  0  0  0  0  0  0  0
   -0.0921    1.1191   -1.2322 H   0  0  0  0  0  0  0  0  0  0  0  0
    3.7092   -1.2891    0.0948 H   0  0  0  0  0  0  0  0  0  0  0  0
    5.4980   -1.0393    1.7742 H   0  0  0  0  0  0  0  0  0  0  0  0
    5.8338   -2.2247    0.4305 H   0  0  0  0  0  0  0  0  0  0  0  0
    7.1916   -1.4190    1.2992 H   0  0  0  0  0  0  0  0  0  0  0  0
    8.2459    2.6642   -1.3324 H   0  0  0  0  0  0  0  0  0  0  0  0
    7.4241    1.9751    0.1084 H   0  0  0  0  0  0  0  0  0  0  0  0
    7.9261    0.8980   -1.2851 H   0  0  0  0  0  0  0  0  0  0  0  0
    4.0653    2.8172   -2.6555 H   0  0  0  0  0  0  0  0  0  0  0  0
    1.8940    1.7242   -2.3648 H   0  0  0  0  0  0  0  0  0  0  0  0
  1 28  1  0  0  0  0
  1 29  1  0  0  0  0
  1 30  1  0  0  0  0
  2  1  1  0  0  0  0
  3  2  1  0  0  0  0
  4  3  2  0  0  0  0
  4 31  1  0  0  0  0
  5  4  1  0  0  0  0
  6  5  2  0  0  0  0
  6 32  1  0  0  0  0
  7  6  1  0  0  0  0
  8  7  1  0  0  0  0
  9  8  1  0  0  0  0
  9 33  1  0  0  0  0
  9 34  1  0  0  0  0
  9 35  1  0  0  0  0
 10  7  2  0  0  0  0
 10  3  1  0  0  0  0
 11 10  1  0  0  0  0
 12 11  1  0  0  0  0
 12 36  1  0  0  0  0
 12 37  1  0  0  0  0
 12 38  1  0  0  0  0
 13  5  1  0  0  0  0
 14 13  1  0  0  0  0
 14 39  1  0  0  0  0
 15 14  2  0  0  0  0
 16 15  1  0  0  0  0
 17 16  2  0  0  0  0
 17 13  1  0  0  0  0
 18 15  1  0  0  0  0
 19 18  2  0  0  0  0
 19 40  1  0  0  0  0
 20 19  1  0  0  0  0
 21 20  1  0  0  0  0
 22 21  1  0  0  0  0
 22 41  1  0  0  0  0
 22 42  1  0  0  0  0
 22 43  1  0  0  0  0
 23 20  2  0  0  0  0
 24 23  1  0  0  0  0
 25 24  1  0  0  0  0
 25 44  1  0  0  0  0
 25 45  1  0  0  0  0
 25 46  1  0  0  0  0
 26 23  1  0  0  0  0
 26 47  1  0  0  0  0
 27 26  2  0  0  0  0
 27 18  1  0  0  0  0
 27 48  1  0  0  0  0
M  END
>  <MOL Chiral Flag>
0

>  <energy>
125.84864049628155

$$$$
