>381.sdf
 OpenBabel10062213123D

 29 30  0  0  0  0  0  0  0  0999 V2000
   -1.3241    2.9473   -1.2014 C   0  0  0  0  0  0  0  0  0  0  0  0
   -0.9014    3.3430    0.6617 Se  0  0  0  0  0  0  0  0  0  0  0  0
   -0.3917    1.5002    0.9691 C   0  0  0  0  0  0  0  0  0  0  0  0
   -1.4264    0.5127    0.9544 N   0  0  0  0  0  0  0  0  0  0  0  0
   -1.1750   -0.8270    1.0996 C   0  0  0  0  0  0  0  0  0  0  0  0
   -0.0774   -1.2204    1.4635 O   0  0  0  0  0  0  0  0  0  0  0  0
   -2.1912   -1.8328    0.7354 C   0  0  0  0  0  0  0  0  0  0  0  0
   -3.4318   -1.6219    0.1232 C   0  0  0  0  0  0  0  0  0  0  0  0
   -4.1045   -2.8312   -0.2048 C   0  0  0  0  0  0  0  0  0  0  0  0
   -3.3966   -3.9827    0.1521 C   0  0  0  0  0  0  0  0  0  0  0  0
   -1.9815   -3.4752    0.8455 S   0  0  0  0  0  0  0  0  0  0  0  0
    0.8384    1.1118    0.9171 N   0  0  0  0  0  0  0  0  0  0  0  0
    2.0135    1.8819    0.7072 C   0  0  0  0  0  0  0  0  0  0  0  0
    2.0211    3.0967    0.8366 O   0  0  0  0  0  0  0  0  0  0  0  0
    3.1986    1.1752    0.2029 C   0  0  0  0  0  0  0  0  0  0  0  0
    3.2886   -0.2074    0.0059 C   0  0  0  0  0  0  0  0  0  0  0  0
    4.5252   -0.6156   -0.5570 C   0  0  0  0  0  0  0  0  0  0  0  0
    5.4026    0.4447   -0.8039 C   0  0  0  0  0  0  0  0  0  0  0  0
    4.6281    1.8328   -0.3160 S   0  0  0  0  0  0  0  0  0  0  0  0
   -1.1348    3.8499   -1.8163 H   0  0  0  0  0  0  0  0  0  0  0  0
   -2.3848    2.6342   -1.2921 H   0  0  0  0  0  0  0  0  0  0  0  0
   -0.6551    2.1516   -1.5919 H   0  0  0  0  0  0  0  0  0  0  0  0
   -2.3744    0.8270    0.7130 H   0  0  0  0  0  0  0  0  0  0  0  0
   -3.8366   -0.6489   -0.1170 H   0  0  0  0  0  0  0  0  0  0  0  0
   -5.0643   -2.8574   -0.7014 H   0  0  0  0  0  0  0  0  0  0  0  0
   -3.7046   -5.0056   -0.0125 H   0  0  0  0  0  0  0  0  0  0  0  0
    2.4929   -0.9015    0.2459 H   0  0  0  0  0  0  0  0  0  0  0  0
    4.7579   -1.6485   -0.7806 H   0  0  0  0  0  0  0  0  0  0  0  0
    6.3893    0.3667   -1.2379 H   0  0  0  0  0  0  0  0  0  0  0  0
  1 20  1  0  0  0  0
  1 21  1  0  0  0  0
  1 22  1  0  0  0  0
  2  1  1  0  0  0  0
  3  2  1  0  0  0  0
  4  3  1  0  0  0  0
  4 23  1  0  0  0  0
  5  4  1  0  0  0  0
  6  5  2  0  0  0  0
  7  5  1  0  0  0  0
  8  7  2  0  0  0  0
  8 24  1  0  0  0  0
  9  8  1  0  0  0  0
  9 25  1  0  0  0  0
 10  9  2  0  0  0  0
 10 26  1  0  0  0  0
 11 10  1  0  0  0  0
 11  7  1  0  0  0  0
 12  3  2  0  0  0  0
 13 12  1  0  0  0  0
 14 13  2  0  0  0  0
 15 13  1  0  0  0  0
 16 15  2  0  0  0  0
 16 27  1  0  0  0  0
 17 16  1  0  0  0  0
 17 28  1  0  0  0  0
 18 17  2  0  0  0  0
 18 29  1  0  0  0  0
 19 18  1  0  0  0  0
 19 15  1  0  0  0  0
M  END
>  <MOL Chiral Flag>
0

>  <energy>
-13.315379988626844

$$$$
