>386.sdf
 OpenBabel10062213153D

 44 44  0  0  0  0  0  0  0  0999 V2000
   -2.2430   -5.1109   -0.8865 C   0  0  0  0  0  0  0  0  0  0  0  0
   -2.4353   -4.0902    0.2034 C   0  0  0  0  0  0  0  0  0  0  0  0
   -3.4486   -4.4132    1.2819 C   0  0  0  0  0  0  0  0  0  0  0  0
   -1.7156   -2.9414    0.1850 C   0  0  0  0  0  0  0  0  0  0  0  0
   -1.8395   -1.8832    1.2531 C   0  0  0  0  0  0  0  0  0  0  0  0
   -0.9793   -0.6095    1.0724 C   0  0  0  0  0  0  0  0  0  0  0  0
    0.5787   -0.6834    1.3230 C   0  0  2  0  0  0  0  0  0  0  0  0
    1.2444   -1.5829    0.2362 C   0  0  0  0  0  0  0  0  0  0  0  0
    0.7981   -1.2575    2.5955 O   0  0  0  0  0  0  0  0  0  0  0  0
    1.2488    0.7858    1.3590 C   0  0  0  0  0  0  0  0  0  0  0  0
    0.5161    1.6599    2.4297 C   0  0  0  0  0  0  0  0  0  0  0  0
    1.1834    1.5045   -0.0303 C   0  0  0  0  0  0  0  0  0  0  0  0
    1.9114    2.8649   -0.0392 C   0  0  0  0  0  0  0  0  0  0  0  0
    3.3817    2.6927    0.3654 C   0  0  0  0  0  0  0  0  0  0  0  0
    3.4964    2.0450    1.7500 C   0  0  0  0  0  0  0  0  0  0  0  0
    2.7650    0.6871    1.7660 C   0  0  0  0  0  0  0  0  0  0  0  0
   -1.4777   -4.7989   -1.6290 H   0  0  0  0  0  0  0  0  0  0  0  0
   -3.2030   -5.2749   -1.4184 H   0  0  0  0  0  0  0  0  0  0  0  0
   -1.9136   -6.0702   -0.4340 H   0  0  0  0  0  0  0  0  0  0  0  0
   -3.1591   -5.3533    1.7950 H   0  0  0  0  0  0  0  0  0  0  0  0
   -4.4437   -4.5579    0.8103 H   0  0  0  0  0  0  0  0  0  0  0  0
   -3.5616   -3.6284    2.0544 H   0  0  0  0  0  0  0  0  0  0  0  0
   -1.0337   -2.7713   -0.6391 H   0  0  0  0  0  0  0  0  0  0  0  0
   -2.9023   -1.5532    1.2386 H   0  0  0  0  0  0  0  0  0  0  0  0
   -1.6303   -2.3221    2.2519 H   0  0  0  0  0  0  0  0  0  0  0  0
   -1.4113    0.0476    1.8459 H   0  0  0  0  0  0  0  0  0  0  0  0
   -1.2011   -0.1619    0.0812 H   0  0  0  0  0  0  0  0  0  0  0  0
    1.0171   -1.2211   -0.7880 H   0  0  0  0  0  0  0  0  0  0  0  0
    0.8978   -2.6294    0.3101 H   0  0  0  0  0  0  0  0  0  0  0  0
    2.3384   -1.6666    0.3519 H   0  0  0  0  0  0  0  0  0  0  0  0
    0.6534   -2.2380    2.5443 H   0  0  0  0  0  0  0  0  0  0  0  0
    0.5101    1.1518    3.4169 H   0  0  0  0  0  0  0  0  0  0  0  0
   -0.5218    1.9021    2.1329 H   0  0  0  0  0  0  0  0  0  0  0  0
    0.9676    2.6523    2.5905 H   0  0  0  0  0  0  0  0  0  0  0  0
    0.1310    1.6602   -0.3452 H   0  0  0  0  0  0  0  0  0  0  0  0
    1.6826    0.8825   -0.8016 H   0  0  0  0  0  0  0  0  0  0  0  0
    1.4124    3.5820    0.6438 H   0  0  0  0  0  0  0  0  0  0  0  0
    1.8637    3.3021   -1.0597 H   0  0  0  0  0  0  0  0  0  0  0  0
    3.8917    2.0462   -0.3820 H   0  0  0  0  0  0  0  0  0  0  0  0
    3.8902    3.6810    0.3712 H   0  0  0  0  0  0  0  0  0  0  0  0
    3.0942    2.7293    2.5223 H   0  0  0  0  0  0  0  0  0  0  0  0
    4.5689    1.8905    1.9968 H   0  0  0  0  0  0  0  0  0  0  0  0
    3.3215    0.0517    1.0523 H   0  0  0  0  0  0  0  0  0  0  0  0
    2.8706    0.2337    2.7752 H   0  0  0  0  0  0  0  0  0  0  0  0
  1 17  1  0  0  0  0
  1 18  1  0  0  0  0
  1 19  1  0  0  0  0
  2  1  1  0  0  0  0
  3  2  1  0  0  0  0
  3 20  1  0  0  0  0
  3 21  1  0  0  0  0
  3 22  1  0  0  0  0
  4  2  2  0  0  0  0
  4 23  1  0  0  0  0
  5  4  1  0  0  0  0
  5 24  1  0  0  0  0
  5 25  1  0  0  0  0
  6  5  1  0  0  0  0
  6 26  1  0  0  0  0
  6 27  1  0  0  0  0
  7  6  1  6  0  0  0
  8  7  1  0  0  0  0
  8 28  1  0  0  0  0
  8 29  1  0  0  0  0
  8 30  1  0  0  0  0
  9  7  1  0  0  0  0
  9 31  1  0  0  0  0
 10  7  1  0  0  0  0
 11 10  1  0  0  0  0
 11 32  1  0  0  0  0
 11 33  1  0  0  0  0
 11 34  1  0  0  0  0
 12 10  1  0  0  0  0
 12 35  1  0  0  0  0
 12 36  1  0  0  0  0
 13 12  1  0  0  0  0
 13 37  1  0  0  0  0
 13 38  1  0  0  0  0
 14 13  1  0  0  0  0
 14 39  1  0  0  0  0
 14 40  1  0  0  0  0
 15 14  1  0  0  0  0
 15 41  1  0  0  0  0
 15 42  1  0  0  0  0
 16 15  1  0  0  0  0
 16 10  1  0  0  0  0
 16 43  1  0  0  0  0
 16 44  1  0  0  0  0
M  END
>  <MOL Chiral Flag>
0

>  <energy>
58.121313230404525

$$$$
