>387.sdf
 OpenBabel10062213153D

 30 31  0  0  0  0  0  0  0  0999 V2000
   -1.8432   -4.8142   -1.8595 O   0  5  0  0  0  0  0  0  0  0  0  0
   -2.7173   -4.2114   -1.0834 N   0  3  0  0  0  0  0  0  0  0  0  0
   -3.6515   -4.8216   -0.6591 O   0  0  0  0  0  0  0  0  0  0  0  0
   -2.5459   -2.8441   -0.7553 C   0  0  0  0  0  0  0  0  0  0  0  0
   -3.3834   -2.0889    0.0435 C   0  0  0  0  0  0  0  0  0  0  0  0
   -2.8257   -0.8293    0.0804 C   0  0  0  0  0  0  0  0  0  0  0  0
   -1.6820   -0.8954   -0.6984 C   0  0  0  0  0  0  0  0  0  0  0  0
   -1.5444   -2.1095   -1.1819 O   0  0  0  0  0  0  0  0  0  0  0  0
   -0.7443    0.2034   -0.9679 C   0  0  0  0  0  0  0  0  0  0  0  0
   -0.9492    1.3692   -0.4630 N   0  0  0  0  0  0  0  0  0  0  0  0
   -0.0933    2.4209   -0.7078 N   0  0  0  0  0  0  0  0  0  0  0  0
   -0.3536    3.6491   -0.1875 C   0  0  0  0  0  0  0  0  0  0  0  0
   -1.3477    3.8023    0.5027 O   0  0  0  0  0  0  0  0  0  0  0  0
    0.4873    4.6943   -0.4671 N   0  0  0  0  0  0  0  0  0  0  0  0
    0.3587    6.0584   -0.0187 C   0  0  0  0  0  0  0  0  0  0  0  0
   -0.5911    6.4943    0.9416 C   0  0  0  0  0  0  0  0  0  0  0  0
   -0.6523    7.8408    1.3163 C   0  0  0  0  0  0  0  0  0  0  0  0
    0.2190    8.7723    0.7514 C   0  0  0  0  0  0  0  0  0  0  0  0
    0.1290   10.4592    1.2243 Cl  0  0  0  0  0  0  0  0  0  0  0  0
    1.1628    8.3592   -0.1881 C   0  0  0  0  0  0  0  0  0  0  0  0
    1.2348    7.0165   -0.5667 C   0  0  0  0  0  0  0  0  0  0  0  0
   -4.2892   -2.4133    0.5387 H   0  0  0  0  0  0  0  0  0  0  0  0
   -3.2083    0.0327    0.6112 H   0  0  0  0  0  0  0  0  0  0  0  0
    0.1176    0.0199   -1.6038 H   0  0  0  0  0  0  0  0  0  0  0  0
    0.7415    2.2808   -1.2996 H   0  0  0  0  0  0  0  0  0  0  0  0
    1.2848    4.4912   -1.0900 H   0  0  0  0  0  0  0  0  0  0  0  0
   -1.2842    5.8315    1.4228 H   0  0  0  0  0  0  0  0  0  0  0  0
   -1.3817    8.1594    2.0505 H   0  0  0  0  0  0  0  0  0  0  0  0
    1.8418    9.0785   -0.6280 H   0  0  0  0  0  0  0  0  0  0  0  0
    1.9742    6.7195   -1.3002 H   0  0  0  0  0  0  0  0  0  0  0  0
  2  1  1  0  0  0  0
  3  2  2  0  0  0  0
  4  2  1  0  0  0  0
  5  4  2  0  0  0  0
  5 22  1  0  0  0  0
  6  5  1  0  0  0  0
  6 23  1  0  0  0  0
  7  6  2  0  0  0  0
  8  7  1  0  0  0  0
  8  4  1  0  0  0  0
  9  7  1  0  0  0  0
  9 24  1  0  0  0  0
 10  9  2  0  0  0  0
 11 10  1  0  0  0  0
 11 25  1  0  0  0  0
 12 11  1  0  0  0  0
 13 12  2  0  0  0  0
 14 12  1  0  0  0  0
 14 26  1  0  0  0  0
 15 14  1  0  0  0  0
 16 15  2  0  0  0  0
 16 27  1  0  0  0  0
 17 16  1  0  0  0  0
 17 28  1  0  0  0  0
 18 17  2  0  0  0  0
 19 18  1  0  0  0  0
 20 18  1  0  0  0  0
 20 29  1  0  0  0  0
 21 20  2  0  0  0  0
 21 15  1  0  0  0  0
 21 30  1  0  0  0  0
M  CHG  2   1  -1   2   1
M  END
>  <MOL Chiral Flag>
0

>  <energy>
75.299263491529388

$$$$
