>39.sdf
 OpenBabel10052218043D

 43 46  0  0  0  0  0  0  0  0999 V2000
   -5.5940   -0.8295   -1.4486 C   0  0  0  0  0  0  0  0  0  0  0  0
   -4.2475   -1.1076   -1.3629 O   0  0  0  0  0  0  0  0  0  0  0  0
   -3.3600   -0.3223   -0.7069 C   0  0  0  0  0  0  0  0  0  0  0  0
   -2.2063    0.0656   -1.3866 C   0  0  0  0  0  0  0  0  0  0  0  0
   -1.2152    0.7981   -0.7329 C   0  0  0  0  0  0  0  0  0  0  0  0
   -1.4167    1.2216    0.5861 C   0  0  0  0  0  0  0  0  0  0  0  0
   -2.5735    0.8841    1.2733 C   0  0  0  0  0  0  0  0  0  0  0  0
   -2.7119    1.3460    2.5404 O   0  0  0  0  0  0  0  0  0  0  0  0
   -3.8503    1.9859    2.9882 C   0  0  0  0  0  0  0  0  0  0  0  0
   -3.5305    0.0514    0.6488 C   0  0  0  0  0  0  0  0  0  0  0  0
   -4.5259   -0.4912    1.3779 O   0  0  0  0  0  0  0  0  0  0  0  0
   -4.2516   -1.6227    2.1316 C   0  0  0  0  0  0  0  0  0  0  0  0
    0.0570    0.9806   -1.3545 N   0  0  0  0  0  0  0  0  0  0  0  0
    1.2102    0.9204   -0.6839 C   0  0  0  0  0  0  0  0  0  0  0  0
    2.2034    0.8158   -1.6167 C   0  0  0  0  0  0  0  0  0  0  0  0
    1.6355    0.8702   -2.8411 N   0  0  0  0  0  0  0  0  0  0  0  0
    0.3229    0.9425   -2.6523 N   0  0  0  0  0  0  0  0  0  0  0  0
    3.5965    0.4354   -1.3389 C   0  0  0  0  0  0  0  0  0  0  0  0
    3.9141   -0.1464   -0.0856 C   0  0  0  0  0  0  0  0  0  0  0  0
    5.1954   -0.6274    0.1062 C   0  0  0  0  0  0  0  0  0  0  0  0
    6.1407   -0.5356   -0.8317 C   0  0  0  0  0  0  0  0  0  0  0  0
    7.2579   -1.1054   -0.3801 O   0  0  0  0  0  0  0  0  0  0  0  0
    7.0087   -1.6081    0.9036 C   0  0  0  0  0  0  0  0  0  0  0  0
    5.6824   -1.2622    1.1698 O   0  0  0  0  0  0  0  0  0  0  0  0
    5.8994    0.0525   -2.0729 C   0  0  0  0  0  0  0  0  0  0  0  0
    4.5995    0.5323   -2.3356 C   0  0  0  0  0  0  0  0  0  0  0  0
   -5.7304    0.1321   -1.9890 H   0  0  0  0  0  0  0  0  0  0  0  0
   -6.0874   -1.6303   -2.0361 H   0  0  0  0  0  0  0  0  0  0  0  0
   -6.0758   -0.7707   -0.4547 H   0  0  0  0  0  0  0  0  0  0  0  0
   -2.0490   -0.2771   -2.4016 H   0  0  0  0  0  0  0  0  0  0  0  0
   -0.6607    1.8075    1.0936 H   0  0  0  0  0  0  0  0  0  0  0  0
   -4.0491    2.8739    2.3469 H   0  0  0  0  0  0  0  0  0  0  0  0
   -3.6796    2.3476    4.0226 H   0  0  0  0  0  0  0  0  0  0  0  0
   -4.7338    1.3207    2.9841 H   0  0  0  0  0  0  0  0  0  0  0  0
   -5.1521   -1.9506    2.6858 H   0  0  0  0  0  0  0  0  0  0  0  0
   -3.4344   -1.4222    2.8620 H   0  0  0  0  0  0  0  0  0  0  0  0
   -3.9191   -2.4544    1.4683 H   0  0  0  0  0  0  0  0  0  0  0  0
    1.3001    0.8356    0.3900 H   0  0  0  0  0  0  0  0  0  0  0  0
    3.1785   -0.2798    0.6954 H   0  0  0  0  0  0  0  0  0  0  0  0
    7.6818   -1.1363    1.6477 H   0  0  0  0  0  0  0  0  0  0  0  0
    7.1239   -2.7139    0.9149 H   0  0  0  0  0  0  0  0  0  0  0  0
    6.6763    0.1118   -2.8220 H   0  0  0  0  0  0  0  0  0  0  0  0
    4.3706    0.9619   -3.3027 H   0  0  0  0  0  0  0  0  0  0  0  0
  1 27  1  0  0  0  0
  1 28  1  0  0  0  0
  1 29  1  0  0  0  0
  2  1  1  0  0  0  0
  3  2  1  0  0  0  0
  4  3  2  0  0  0  0
  4 30  1  0  0  0  0
  5  4  1  0  0  0  0
  6  5  2  0  0  0  0
  6 31  1  0  0  0  0
  7  6  1  0  0  0  0
  8  7  1  0  0  0  0
  9  8  1  0  0  0  0
  9 32  1  0  0  0  0
  9 33  1  0  0  0  0
  9 34  1  0  0  0  0
 10  7  2  0  0  0  0
 10  3  1  0  0  0  0
 11 10  1  0  0  0  0
 12 11  1  0  0  0  0
 12 35  1  0  0  0  0
 12 36  1  0  0  0  0
 12 37  1  0  0  0  0
 13  5  1  0  0  0  0
 14 13  1  0  0  0  0
 14 38  1  0  0  0  0
 15 14  2  0  0  0  0
 16 15  1  0  0  0  0
 17 16  2  0  0  0  0
 17 13  1  0  0  0  0
 18 15  1  0  0  0  0
 19 18  2  0  0  0  0
 19 39  1  0  0  0  0
 20 19  1  0  0  0  0
 21 20  2  0  0  0  0
 22 21  1  0  0  0  0
 23 22  1  0  0  0  0
 23 40  1  0  0  0  0
 23 41  1  0  0  0  0
 24 23  1  0  0  0  0
 24 20  1  0  0  0  0
 25 21  1  0  0  0  0
 25 42  1  0  0  0  0
 26 25  2  0  0  0  0
 26 18  1  0  0  0  0
 26 43  1  0  0  0  0
M  END
>  <MOL Chiral Flag>
0

>  <energy>
98.446378576109055

$$$$
