>394.sdf
 OpenBabel10062213193D

 49 50  0  0  0  0  0  0  0  0999 V2000
    0.7258   -2.6111    3.1470 C   0  0  0  0  0  0  0  0  0  0  0  0
   -0.6427   -2.4529    3.0849 O   0  0  0  0  0  0  0  0  0  0  0  0
   -1.3344   -1.4125    2.5389 C   0  0  0  0  0  0  0  0  0  0  0  0
   -2.7325   -1.4886    2.5672 C   0  0  0  0  0  0  0  0  0  0  0  0
   -3.5389   -0.4801    2.0152 C   0  0  0  0  0  0  0  0  0  0  0  0
   -5.0468   -0.6633    2.1082 C   0  0  0  0  0  0  0  0  0  0  0  0
   -5.9416    0.3587    1.4440 C   0  0  0  0  0  0  0  0  0  0  0  0
   -7.2695    0.2347    1.5242 C   0  0  0  0  0  0  0  0  0  0  0  0
   -2.9142    0.6329    1.4189 C   0  0  0  0  0  0  0  0  0  0  0  0
   -1.5221    0.7224    1.3783 C   0  0  0  0  0  0  0  0  0  0  0  0
   -0.7185   -0.2864    1.9342 C   0  0  0  0  0  0  0  0  0  0  0  0
    0.6294   -0.1593    1.9071 O   0  0  0  0  0  0  0  0  0  0  0  0
    1.3228    0.1528    0.7871 C   0  0  0  0  0  0  0  0  0  0  0  0
    1.4582   -0.8130   -0.2121 C   0  0  0  0  0  0  0  0  0  0  0  0
    2.1966   -0.5493   -1.3671 C   0  0  0  0  0  0  0  0  0  0  0  0
    2.3507   -1.6165   -2.4231 C   0  0  0  0  0  0  0  0  0  0  0  0
    1.0078   -2.0404   -2.9612 C   0  0  0  0  0  0  0  0  0  0  0  0
    0.6992   -1.9243   -4.2554 C   0  0  0  0  0  0  0  0  0  0  0  0
    2.8069    0.7019   -1.5212 C   0  0  0  0  0  0  0  0  0  0  0  0
    2.6791    1.6991   -0.5267 C   0  0  0  0  0  0  0  0  0  0  0  0
    3.2786    2.9121   -0.6739 O   0  0  0  0  0  0  0  0  0  0  0  0
    4.0978    3.2866   -1.7204 C   0  0  0  0  0  0  0  0  0  0  0  0
    1.9201    1.4172    0.6470 C   0  0  0  0  0  0  0  0  0  0  0  0
    1.7260    2.3180    1.6531 O   0  0  0  0  0  0  0  0  0  0  0  0
    2.1179    3.6406    1.6804 C   0  0  0  0  0  0  0  0  0  0  0  0
    1.1798   -1.8077    3.7632 H   0  0  0  0  0  0  0  0  0  0  0  0
    0.9508   -3.5871    3.6232 H   0  0  0  0  0  0  0  0  0  0  0  0
    1.1654   -2.6287    2.1290 H   0  0  0  0  0  0  0  0  0  0  0  0
   -3.1999   -2.3536    3.0239 H   0  0  0  0  0  0  0  0  0  0  0  0
   -5.2937   -1.6483    1.6551 H   0  0  0  0  0  0  0  0  0  0  0  0
   -5.3079   -0.7015    3.1889 H   0  0  0  0  0  0  0  0  0  0  0  0
   -5.5493    1.1967    0.8881 H   0  0  0  0  0  0  0  0  0  0  0  0
   -7.9139    0.9627    1.0420 H   0  0  0  0  0  0  0  0  0  0  0  0
   -7.7190   -0.5902    2.0696 H   0  0  0  0  0  0  0  0  0  0  0  0
   -3.4766    1.4447    0.9920 H   0  0  0  0  0  0  0  0  0  0  0  0
   -1.0639    1.5938    0.9272 H   0  0  0  0  0  0  0  0  0  0  0  0
    0.9947   -1.7821   -0.0793 H   0  0  0  0  0  0  0  0  0  0  0  0
    3.0031   -1.2535   -3.2479 H   0  0  0  0  0  0  0  0  0  0  0  0
    2.8473   -2.5013   -1.9706 H   0  0  0  0  0  0  0  0  0  0  0  0
    0.2708   -2.4575   -2.2810 H   0  0  0  0  0  0  0  0  0  0  0  0
    1.4099   -1.5151   -4.9663 H   0  0  0  0  0  0  0  0  0  0  0  0
   -0.2763   -2.2433   -4.6078 H   0  0  0  0  0  0  0  0  0  0  0  0
    3.3831    0.8927   -2.4163 H   0  0  0  0  0  0  0  0  0  0  0  0
    3.5433    3.2470   -2.6819 H   0  0  0  0  0  0  0  0  0  0  0  0
    4.9909    2.6266   -1.7627 H   0  0  0  0  0  0  0  0  0  0  0  0
    4.4408    4.3284   -1.5555 H   0  0  0  0  0  0  0  0  0  0  0  0
    1.7686    4.0986    2.6281 H   0  0  0  0  0  0  0  0  0  0  0  0
    1.6511    4.1968    0.8386 H   0  0  0  0  0  0  0  0  0  0  0  0
    3.2242    3.7234    1.6481 H   0  0  0  0  0  0  0  0  0  0  0  0
  1 26  1  0  0  0  0
  1 27  1  0  0  0  0
  1 28  1  0  0  0  0
  2  1  1  0  0  0  0
  3  2  1  0  0  0  0
  4  3  2  0  0  0  0
  4 29  1  0  0  0  0
  5  4  1  0  0  0  0
  6  5  1  0  0  0  0
  6 30  1  0  0  0  0
  6 31  1  0  0  0  0
  7  6  1  0  0  0  0
  7 32  1  0  0  0  0
  8  7  2  0  0  0  0
  8 33  1  0  0  0  0
  8 34  1  0  0  0  0
  9  5  2  0  0  0  0
  9 35  1  0  0  0  0
 10  9  1  0  0  0  0
 10 36  1  0  0  0  0
 11 10  2  0  0  0  0
 11  3  1  0  0  0  0
 12 11  1  0  0  0  0
 13 12  1  0  0  0  0
 14 13  2  0  0  0  0
 14 37  1  0  0  0  0
 15 14  1  0  0  0  0
 16 15  1  0  0  0  0
 16 38  1  0  0  0  0
 16 39  1  0  0  0  0
 17 16  1  0  0  0  0
 17 40  1  0  0  0  0
 18 17  2  0  0  0  0
 18 41  1  0  0  0  0
 18 42  1  0  0  0  0
 19 15  2  0  0  0  0
 19 43  1  0  0  0  0
 20 19  1  0  0  0  0
 21 20  1  0  0  0  0
 22 21  1  0  0  0  0
 22 44  1  0  0  0  0
 22 45  1  0  0  0  0
 22 46  1  0  0  0  0
 23 20  2  0  0  0  0
 23 13  1  0  0  0  0
 24 23  1  0  0  0  0
 25 24  1  0  0  0  0
 25 47  1  0  0  0  0
 25 48  1  0  0  0  0
 25 49  1  0  0  0  0
M  END
>  <MOL Chiral Flag>
0

>  <energy>
124.24595292185043

$$$$
