>395.sdf
 OpenBabel10062213193D

 35 38  0  0  0  0  0  0  0  0999 V2000
   -3.8142    0.0345    0.2175 C   0  0  0  0  0  0  0  0  0  0  0  0
   -2.8000   -0.5304   -0.7893 C   0  0  0  0  0  0  0  0  0  0  0  0
   -3.3274   -0.2935   -2.2163 C   0  0  0  0  0  0  0  0  0  0  0  0
   -2.5928   -2.0323   -0.5011 C   0  0  0  0  0  0  0  0  0  0  0  0
   -1.4189   -2.5880   -1.3082 C   0  0  0  0  0  0  0  0  0  0  0  0
   -0.2008   -1.7074   -1.1269 C   0  0  0  0  0  0  0  0  0  0  0  0
   -0.3548   -0.4014   -0.7827 C   0  0  0  0  0  0  0  0  0  0  0  0
   -1.5983    0.1501   -0.6307 O   0  0  0  0  0  0  0  0  0  0  0  0
    0.8585    0.4692   -0.5708 C   0  0  2  0  0  0  0  0  0  0  0  0
    0.8132    1.0398    0.8157 C   0  0  0  0  0  0  0  0  0  0  0  0
    0.6802    1.8397   -0.3400 O   0  0  0  0  0  0  0  0  0  0  0  0
    2.2366   -0.0664   -0.8841 C   0  0  0  0  0  0  0  0  0  0  0  0
    2.3692   -1.4185   -1.2541 C   0  0  0  0  0  0  0  0  0  0  0  0
    3.6469   -1.9409   -1.5290 C   0  0  0  0  0  0  0  0  0  0  0  0
    4.7762   -1.1232   -1.4413 C   0  0  0  0  0  0  0  0  0  0  0  0
    4.6435    0.2199   -1.0872 C   0  0  0  0  0  0  0  0  0  0  0  0
    3.3814    0.7513   -0.8123 C   0  0  0  0  0  0  0  0  0  0  0  0
    1.1584   -2.2764   -1.3655 C   0  0  0  0  0  0  0  0  0  0  0  0
    1.2724   -3.4508   -1.6835 O   0  0  0  0  0  0  0  0  0  0  0  0
   -3.4414   -0.0940    1.2568 H   0  0  0  0  0  0  0  0  0  0  0  0
   -3.9703    1.1210    0.0436 H   0  0  0  0  0  0  0  0  0  0  0  0
   -4.7930   -0.4842    0.1264 H   0  0  0  0  0  0  0  0  0  0  0  0
   -3.4887    0.7919   -2.3917 H   0  0  0  0  0  0  0  0  0  0  0  0
   -2.6043   -0.6505   -2.9778 H   0  0  0  0  0  0  0  0  0  0  0  0
   -4.2931   -0.8226   -2.3682 H   0  0  0  0  0  0  0  0  0  0  0  0
   -3.5165   -2.6255   -0.6774 H   0  0  0  0  0  0  0  0  0  0  0  0
   -2.3193   -2.1399    0.5737 H   0  0  0  0  0  0  0  0  0  0  0  0
   -1.6464   -2.6737   -2.3913 H   0  0  0  0  0  0  0  0  0  0  0  0
   -1.2195   -3.6107   -0.9212 H   0  0  0  0  0  0  0  0  0  0  0  0
   -0.1531    1.1469    1.3539 H   0  0  0  0  0  0  0  0  0  0  0  0
    1.7355    1.4010    1.3172 H   0  0  0  0  0  0  0  0  0  0  0  0
    3.7693   -2.9782   -1.8136 H   0  0  0  0  0  0  0  0  0  0  0  0
    5.7561   -1.5316   -1.6527 H   0  0  0  0  0  0  0  0  0  0  0  0
    5.5208    0.8506   -1.0233 H   0  0  0  0  0  0  0  0  0  0  0  0
    3.2980    1.7946   -0.5367 H   0  0  0  0  0  0  0  0  0  0  0  0
  1 20  1  0  0  0  0
  1 21  1  0  0  0  0
  1 22  1  0  0  0  0
  2  1  1  0  0  0  0
  3  2  1  0  0  0  0
  3 23  1  0  0  0  0
  3 24  1  0  0  0  0
  3 25  1  0  0  0  0
  4  2  1  0  0  0  0
  4 26  1  0  0  0  0
  4 27  1  0  0  0  0
  5  4  1  0  0  0  0
  5 28  1  0  0  0  0
  5 29  1  0  0  0  0
  6  5  1  0  0  0  0
  7  6  2  0  0  0  0
  8  7  1  0  0  0  0
  8  2  1  0  0  0  0
  9  7  1  6  0  0  0
 10  9  1  0  0  0  0
 10 30  1  0  0  0  0
 10 31  1  0  0  0  0
 11 10  1  0  0  0  0
 11  9  1  0  0  0  0
 12  9  1  0  0  0  0
 13 12  2  0  0  0  0
 14 13  1  0  0  0  0
 14 32  1  0  0  0  0
 15 14  2  0  0  0  0
 15 33  1  0  0  0  0
 16 15  1  0  0  0  0
 16 34  1  0  0  0  0
 17 16  2  0  0  0  0
 17 12  1  0  0  0  0
 17 35  1  0  0  0  0
 18 13  1  0  0  0  0
 18  6  1  0  0  0  0
 19 18  2  0  0  0  0
M  END
>  <MOL Chiral Flag>
0

>  <energy>
55.082426027093646

$$$$
