>400.sdf
 OpenBabel10062213223D

109115  0  0  0  0  0  0  0  0999 V2000
   -6.5338   -2.8630    7.6790 C   0  0  0  0  0  0  0  0  0  0  0  0
   -7.2443   -1.7132    7.3848 O   0  0  0  0  0  0  0  0  0  0  0  0
   -7.1221   -0.8801    6.3120 C   0  0  0  0  0  0  0  0  0  0  0  0
   -7.9096    0.2944    6.3058 C   0  0  0  0  0  0  0  0  0  0  0  0
   -8.7616    0.5392    7.3460 O   0  0  0  0  0  0  0  0  0  0  0  0
   -9.3636    1.7567    7.6467 C   0  0  0  0  0  0  0  0  0  0  0  0
  -10.8105    1.8211    7.1904 C   0  0  0  0  0  0  0  0  0  0  0  0
  -11.1541    1.7134    5.8261 C   0  0  0  0  0  0  0  0  0  0  0  0
  -12.4822    1.8297    5.4150 C   0  0  0  0  0  0  0  0  0  0  0  0
  -13.4885    2.0473    6.3535 C   0  0  0  0  0  0  0  0  0  0  0  0
  -13.1678    2.1453    7.7095 C   0  0  0  0  0  0  0  0  0  0  0  0
  -11.8361    2.0345    8.1293 C   0  0  0  0  0  0  0  0  0  0  0  0
   -7.8261    1.1701    5.2149 C   0  0  0  0  0  0  0  0  0  0  0  0
   -7.0376    0.8681    4.1288 C   0  0  0  0  0  0  0  0  0  0  0  0
   -6.2443   -0.2806    4.0996 C   0  0  0  0  0  0  0  0  0  0  0  0
   -5.4528   -0.4494    2.8560 C   0  0  0  0  0  0  0  0  0  0  0  0
   -4.2009   -0.9404    2.6682 C   0  0  0  0  0  0  0  0  0  0  0  0
   -3.3225   -1.4761    3.7679 C   0  0  0  0  0  0  0  0  0  0  0  0
   -1.9144   -1.6967    3.3637 N   0  0  0  0  0  0  0  0  0  0  0  0
   -1.2708   -0.8308    2.3573 C   0  0  0  0  0  0  0  0  0  0  0  0
   -2.2062   -0.3204    1.2915 C   0  0  0  0  0  0  0  0  0  0  0  0
   -1.8812    0.6017    0.3458 C   0  0  0  0  0  0  0  0  0  0  0  0
   -0.6429    1.3972    0.0881 C   0  0  0  0  0  0  0  0  0  0  0  0
    0.6433    1.1727    0.6230 C   0  0  0  0  0  0  0  0  0  0  0  0
    1.7179    2.0403    0.3025 C   0  0  0  0  0  0  0  0  0  0  0  0
    2.9237    1.7889    0.8890 O   0  0  0  0  0  0  0  0  0  0  0  0
    4.0512    2.5834    0.8270 C   0  0  0  0  0  0  0  0  0  0  0  0
    1.4925    3.1440   -0.5811 C   0  0  0  0  0  0  0  0  0  0  0  0
    2.5083    3.9813   -0.9487 O   0  0  0  0  0  0  0  0  0  0  0  0
    2.3502    5.2392   -1.5252 C   0  0  0  0  0  0  0  0  0  0  0  0
    2.3830    5.2637   -3.0442 C   0  0  0  0  0  0  0  0  0  0  0  0
    2.1603    6.4954   -3.6856 C   0  0  0  0  0  0  0  0  0  0  0  0
    2.1837    6.5918   -5.0793 C   0  0  0  0  0  0  0  0  0  0  0  0
    2.4366    5.4604   -5.8543 C   0  0  0  0  0  0  0  0  0  0  0  0
    2.6589    4.2261   -5.2353 C   0  0  0  0  0  0  0  0  0  0  0  0
    2.6289    4.1200   -3.8338 C   0  0  0  0  0  0  0  0  0  0  0  0
    0.1999    3.3544   -1.0763 C   0  0  0  0  0  0  0  0  0  0  0  0
   -0.8327    2.5044   -0.7479 C   0  0  0  0  0  0  0  0  0  0  0  0
   -3.6186   -0.7301    1.3400 C   0  0  0  0  0  0  0  0  0  0  0  0
   -4.3460   -0.5758    0.3641 O   0  0  0  0  0  0  0  0  0  0  0  0
   -1.1813   -2.6344    4.0722 C   0  0  0  0  0  0  0  0  0  0  0  0
   -1.7426   -3.3125    4.9206 O   0  0  0  0  0  0  0  0  0  0  0  0
    0.2645   -2.9367    3.8214 C   0  0  0  0  0  0  0  0  0  0  0  0
    1.1545   -2.1952    3.1322 N   0  0  0  0  0  0  0  0  0  0  0  0
    2.2768   -2.8607    3.0935 O   0  0  0  0  0  0  0  0  0  0  0  0
    2.1629   -4.0078    3.7231 C   0  0  0  0  0  0  0  0  0  0  0  0
    3.2244   -5.0416    3.7698 C   0  0  0  0  0  0  0  0  0  0  0  0
    2.9856   -6.2607    4.2857 C   0  0  0  0  0  0  0  0  0  0  0  0
    3.9951   -7.4034    4.2757 C   0  0  2  0  0  0  0  0  0  0  0  0
    3.2246   -8.7299    4.4223 C   0  0  0  0  0  0  0  0  0  0  0  0
    2.0136   -8.9902    3.5537 C   0  0  0  0  0  0  0  0  0  0  0  0
    3.6043   -9.7042    5.2771 C   0  0  0  0  0  0  0  0  0  0  0  0
    4.8602   -9.6339    6.0967 C   0  0  0  0  0  0  0  0  0  0  0  0
    5.8329   -8.5792    5.5558 C   0  0  0  0  0  0  0  0  0  0  0  0
    5.1422   -7.2159    5.3471 C   0  0  0  0  0  0  0  0  0  0  0  0
    6.2108   -6.2176    4.8495 C   0  0  0  0  0  0  0  0  0  0  0  0
    4.5935   -6.6962    6.7029 C   0  0  0  0  0  0  0  0  0  0  0  0
    0.8838   -4.0954    4.2354 C   0  0  0  0  0  0  0  0  0  0  0  0
   -6.2612   -1.1531    5.2056 C   0  0  0  0  0  0  0  0  0  0  0  0
   -7.2288   -3.7279    7.6595 H   0  0  0  0  0  0  0  0  0  0  0  0
   -6.1205   -2.7751    8.7050 H   0  0  0  0  0  0  0  0  0  0  0  0
   -5.6890   -3.0660    6.9995 H   0  0  0  0  0  0  0  0  0  0  0  0
   -8.8048    2.6119    7.2145 H   0  0  0  0  0  0  0  0  0  0  0  0
   -9.2915    1.9028    8.7457 H   0  0  0  0  0  0  0  0  0  0  0  0
  -10.4148    1.5487    5.0681 H   0  0  0  0  0  0  0  0  0  0  0  0
  -12.7280    1.7560    4.3627 H   0  0  0  0  0  0  0  0  0  0  0  0
  -14.5163    2.1415    6.0281 H   0  0  0  0  0  0  0  0  0  0  0  0
  -13.9517    2.3155    8.4350 H   0  0  0  0  0  0  0  0  0  0  0  0
  -11.6053    2.1264    9.1827 H   0  0  0  0  0  0  0  0  0  0  0  0
   -8.3866    2.0867    5.1704 H   0  0  0  0  0  0  0  0  0  0  0  0
   -7.0305    1.5608    3.2946 H   0  0  0  0  0  0  0  0  0  0  0  0
   -5.9107    0.0354    1.9955 H   0  0  0  0  0  0  0  0  0  0  0  0
   -3.3343   -0.7961    4.6451 H   0  0  0  0  0  0  0  0  0  0  0  0
   -3.7885   -2.4440    4.0497 H   0  0  0  0  0  0  0  0  0  0  0  0
   -0.7705    0.0080    2.8840 H   0  0  0  0  0  0  0  0  0  0  0  0
   -0.5618   -1.4235    1.7496 H   0  0  0  0  0  0  0  0  0  0  0  0
   -2.6993    0.9015   -0.3034 H   0  0  0  0  0  0  0  0  0  0  0  0
    0.8353    0.3415    1.2826 H   0  0  0  0  0  0  0  0  0  0  0  0
    4.4476    2.6182   -0.2089 H   0  0  0  0  0  0  0  0  0  0  0  0
    4.8353    2.1567    1.4855 H   0  0  0  0  0  0  0  0  0  0  0  0
    3.8203    3.6062    1.1979 H   0  0  0  0  0  0  0  0  0  0  0  0
    1.4099    5.7110   -1.1681 H   0  0  0  0  0  0  0  0  0  0  0  0
    3.1610    5.8954   -1.1493 H   0  0  0  0  0  0  0  0  0  0  0  0
    1.9628    7.3834   -3.0989 H   0  0  0  0  0  0  0  0  0  0  0  0
    2.0072    7.5474   -5.5576 H   0  0  0  0  0  0  0  0  0  0  0  0
    2.4600    5.5423   -6.9349 H   0  0  0  0  0  0  0  0  0  0  0  0
    2.8563    3.3533   -5.8456 H   0  0  0  0  0  0  0  0  0  0  0  0
    2.8059    3.1558   -3.3767 H   0  0  0  0  0  0  0  0  0  0  0  0
   -0.0275    4.1808   -1.7312 H   0  0  0  0  0  0  0  0  0  0  0  0
   -1.8135    2.7272   -1.1500 H   0  0  0  0  0  0  0  0  0  0  0  0
    4.1809   -4.8182    3.3137 H   0  0  0  0  0  0  0  0  0  0  0  0
    1.9986   -6.4760    4.6796 H   0  0  0  0  0  0  0  0  0  0  0  0
    4.4262   -7.4823    3.2527 H   0  0  0  0  0  0  0  0  0  0  0  0
    2.1835   -9.8995    2.9388 H   0  0  0  0  0  0  0  0  0  0  0  0
    1.8150   -8.1500    2.8560 H   0  0  0  0  0  0  0  0  0  0  0  0
    1.1157   -9.1426    4.1889 H   0  0  0  0  0  0  0  0  0  0  0  0
    2.9969  -10.6014    5.3658 H   0  0  0  0  0  0  0  0  0  0  0  0
    5.3843  -10.6119    6.0424 H   0  0  0  0  0  0  0  0  0  0  0  0
    4.5841   -9.4681    7.1589 H   0  0  0  0  0  0  0  0  0  0  0  0
    6.2212   -8.9297    4.5723 H   0  0  0  0  0  0  0  0  0  0  0  0
    6.6962   -8.5036    6.2531 H   0  0  0  0  0  0  0  0  0  0  0  0
    7.0497   -6.1523    5.5762 H   0  0  0  0  0  0  0  0  0  0  0  0
    5.8060   -5.1951    4.7387 H   0  0  0  0  0  0  0  0  0  0  0  0
    6.6302   -6.5466    3.8737 H   0  0  0  0  0  0  0  0  0  0  0  0
    5.4079   -6.6391    7.4571 H   0  0  0  0  0  0  0  0  0  0  0  0
    4.1713   -5.6748    6.5932 H   0  0  0  0  0  0  0  0  0  0  0  0
    3.7849   -7.3425    7.0998 H   0  0  0  0  0  0  0  0  0  0  0  0
    0.4329   -4.9061    4.7894 H   0  0  0  0  0  0  0  0  0  0  0  0
   -5.6629   -2.0431    5.1729 H   0  0  0  0  0  0  0  0  0  0  0  0
  1 60  1  0  0  0  0
  1 61  1  0  0  0  0
  1 62  1  0  0  0  0
  2  1  1  0  0  0  0
  3  2  1  0  0  0  0
  4  3  2  0  0  0  0
  5  4  1  0  0  0  0
  6  5  1  0  0  0  0
  6 63  1  0  0  0  0
  6 64  1  0  0  0  0
  7  6  1  0  0  0  0
  8  7  2  0  0  0  0
  8 65  1  0  0  0  0
  9  8  1  0  0  0  0
  9 66  1  0  0  0  0
 10  9  2  0  0  0  0
 10 67  1  0  0  0  0
 11 10  1  0  0  0  0
 11 68  1  0  0  0  0
 12 11  2  0  0  0  0
 12  7  1  0  0  0  0
 12 69  1  0  0  0  0
 13  4  1  0  0  0  0
 13 70  1  0  0  0  0
 14 13  2  0  0  0  0
 14 71  1  0  0  0  0
 15 14  1  0  0  0  0
 16 15  1  0  0  0  0
 16 72  1  0  0  0  0
 17 16  2  0  0  0  0
 18 17  1  0  0  0  0
 18 73  1  0  0  0  0
 18 74  1  0  0  0  0
 19 18  1  0  0  0  0
 20 19  1  0  0  0  0
 20 75  1  0  0  0  0
 20 76  1  0  0  0  0
 21 20  1  0  0  0  0
 22 21  2  0  0  0  0
 22 77  1  0  0  0  0
 23 22  1  0  0  0  0
 24 23  2  0  0  0  0
 24 78  1  0  0  0  0
 25 24  1  0  0  0  0
 26 25  1  0  0  0  0
 27 26  1  0  0  0  0
 27 79  1  0  0  0  0
 27 80  1  0  0  0  0
 27 81  1  0  0  0  0
 28 25  2  0  0  0  0
 29 28  1  0  0  0  0
 30 29  1  0  0  0  0
 30 82  1  0  0  0  0
 30 83  1  0  0  0  0
 31 30  1  0  0  0  0
 32 31  2  0  0  0  0
 32 84  1  0  0  0  0
 33 32  1  0  0  0  0
 33 85  1  0  0  0  0
 34 33  2  0  0  0  0
 34 86  1  0  0  0  0
 35 34  1  0  0  0  0
 35 87  1  0  0  0  0
 36 35  2  0  0  0  0
 36 31  1  0  0  0  0
 36 88  1  0  0  0  0
 37 28  1  0  0  0  0
 37 89  1  0  0  0  0
 38 37  2  0  0  0  0
 38 23  1  0  0  0  0
 38 90  1  0  0  0  0
 39 21  1  0  0  0  0
 39 17  1  0  0  0  0
 40 39  2  0  0  0  0
 41 19  1  0  0  0  0
 42 41  2  0  0  0  0
 43 41  1  0  0  0  0
 44 43  2  0  0  0  0
 45 44  1  0  0  0  0
 46 45  1  0  0  0  0
 47 46  1  0  0  0  0
 47 91  1  0  0  0  0
 48 47  2  0  0  0  0
 48 92  1  0  0  0  0
 49 48  1  0  0  0  0
 49 93  1  6  0  0  0
 50 49  1  0  0  0  0
 51 50  1  0  0  0  0
 51 94  1  0  0  0  0
 51 95  1  0  0  0  0
 51 96  1  0  0  0  0
 52 50  2  0  0  0  0
 52 97  1  0  0  0  0
 53 52  1  0  0  0  0
 53 98  1  0  0  0  0
 53 99  1  0  0  0  0
 54 53  1  0  0  0  0
 54100  1  0  0  0  0
 54101  1  0  0  0  0
 55 54  1  0  0  0  0
 55 49  1  0  0  0  0
 56 55  1  0  0  0  0
 56102  1  0  0  0  0
 56103  1  0  0  0  0
 56104  1  0  0  0  0
 57 55  1  0  0  0  0
 57105  1  0  0  0  0
 57106  1  0  0  0  0
 57107  1  0  0  0  0
 58 46  2  0  0  0  0
 58 43  1  0  0  0  0
 58108  1  0  0  0  0
 59 15  2  0  0  0  0
 59  3  1  0  0  0  0
 59109  1  0  0  0  0
M  END
>  <MOL Chiral Flag>
0

>  <energy>
219.93256235478776

$$$$
