>405.sdf
 OpenBabel10102214483D

 37 39  0  0  0  0  0  0  0  0999 V2000
   -0.6391    0.7142   -2.2348 H   0  0  0  0  0  0  0  0  0  0  0  0
   -0.4378    0.9184   -1.1574 C   0  0  2  0  0  0  0  0  0  0  0  0
   -1.6211    1.8030   -0.6739 C   0  0  0  0  0  0  0  0  0  0  0  0
   -2.2125    1.0606    0.5166 C   0  0  0  0  0  0  0  0  0  0  0  0
   -2.0589   -0.4178    0.1244 C   0  0  2  0  0  0  0  0  0  0  0  0
   -3.0683   -0.8478   -0.9717 C   0  0  0  0  0  0  0  0  0  0  0  0
   -2.2091   -1.2650    1.2371 O   0  0  0  0  0  0  0  0  0  0  0  0
   -0.5886   -0.4066   -0.3488 C   0  0  1  0  0  0  0  0  0  0  0  0
   -0.0037   -0.3144    0.5873 H   0  0  0  0  0  0  0  0  0  0  0  0
   -0.1686   -1.6702   -1.1235 C   0  0  2  0  0  0  0  0  0  0  0  0
    0.8304   -2.6673   -0.5083 C   0  0  0  0  0  0  0  0  0  0  0  0
    1.2868   -1.6606   -1.5505 C   0  0  2  0  0  0  0  0  0  0  0  0
    2.3038   -0.6478   -1.0061 C   0  0  0  0  0  0  0  0  0  0  0  0
    2.1150    0.7397   -1.6376 C   0  0  0  0  0  0  0  0  0  0  0  0
    0.9663    1.6163   -1.0562 C   0  0  2  0  0  0  0  0  0  0  0  0
    1.3280    2.0251    0.4068 C   0  0  0  0  0  0  0  0  0  0  0  0
    0.9391    2.7762   -1.8624 O   0  0  0  0  0  0  0  0  0  0  0  0
   -2.3936    1.8033   -1.4732 H   0  0  0  0  0  0  0  0  0  0  0  0
   -1.4085    2.8717   -0.4726 H   0  0  0  0  0  0  0  0  0  0  0  0
   -1.5633    1.2633    1.3993 H   0  0  0  0  0  0  0  0  0  0  0  0
   -3.2467    1.3752    0.7748 H   0  0  0  0  0  0  0  0  0  0  0  0
   -4.1066   -0.7180   -0.5992 H   0  0  0  0  0  0  0  0  0  0  0  0
   -2.9346   -1.9232   -1.2121 H   0  0  0  0  0  0  0  0  0  0  0  0
   -2.9607   -0.2785   -1.9156 H   0  0  0  0  0  0  0  0  0  0  0  0
   -3.0794   -1.0467    1.6636 H   0  0  0  0  0  0  0  0  0  0  0  0
   -0.7348   -1.9449   -2.0398 H   0  0  0  0  0  0  0  0  0  0  0  0
    0.9048   -2.4332    0.5750 H   0  0  0  0  0  0  0  0  0  0  0  0
    0.5049   -3.6721   -0.8488 H   0  0  0  0  0  0  0  0  0  0  0  0
    1.4402   -2.0752   -2.5715 H   0  0  0  0  0  0  0  0  0  0  0  0
    2.3318   -0.5825    0.0991 H   0  0  0  0  0  0  0  0  0  0  0  0
    3.2952   -1.0414   -1.3177 H   0  0  0  0  0  0  0  0  0  0  0  0
    3.0598    1.3100   -1.4936 H   0  0  0  0  0  0  0  0  0  0  0  0
    1.9877    0.6111   -2.7360 H   0  0  0  0  0  0  0  0  0  0  0  0
    1.4421    1.1729    1.1002 H   0  0  0  0  0  0  0  0  0  0  0  0
    0.5578    2.6959    0.8391 H   0  0  0  0  0  0  0  0  0  0  0  0
    2.2915    2.5777    0.4175 H   0  0  0  0  0  0  0  0  0  0  0  0
    0.5484    3.5339   -1.3545 H   0  0  0  0  0  0  0  0  0  0  0  0
  2  1  1  6  0  0  0
  3  2  1  0  0  0  0
  3 18  1  0  0  0  0
  3 19  1  0  0  0  0
  4  3  1  0  0  0  0
  4 20  1  0  0  0  0
  4 21  1  0  0  0  0
  5  4  1  0  0  0  0
  5  6  1  6  0  0  0
  6 22  1  0  0  0  0
  6 23  1  0  0  0  0
  6 24  1  0  0  0  0
  7  5  1  0  0  0  0
  7 25  1  0  0  0  0
  8  5  1  0  0  0  0
  8  2  1  0  0  0  0
  8  9  1  1  0  0  0
 10  8  1  0  0  0  0
 10 26  1  6  0  0  0
 11 10  1  0  0  0  0
 11 27  1  0  0  0  0
 11 28  1  0  0  0  0
 12 11  1  0  0  0  0
 12 10  1  0  0  0  0
 12 29  1  6  0  0  0
 13 12  1  0  0  0  0
 13 30  1  0  0  0  0
 13 31  1  0  0  0  0
 14 13  1  0  0  0  0
 14 32  1  0  0  0  0
 14 33  1  0  0  0  0
 15 14  1  0  0  0  0
 15  2  1  0  0  0  0
 15 16  1  1  0  0  0
 16 34  1  0  0  0  0
 16 35  1  0  0  0  0
 16 36  1  0  0  0  0
 17 15  1  0  0  0  0
 17 37  1  0  0  0  0
M  END
>  <MOL Chiral Flag>
0

>  <energy>
73.356305593110676

$$$$
