>41.sdf
 OpenBabel10052218063D

 46 49  0  0  0  0  0  0  0  0999 V2000
    4.9370    1.7624   -4.2936 Cl  0  0  0  0  0  0  0  0  0  0  0  0
    4.5862    1.6391   -2.5794 C   0  0  0  0  0  0  0  0  0  0  0  0
    3.3494    2.0687   -2.0864 C   0  0  0  0  0  0  0  0  0  0  0  0
    3.0716    1.9914   -0.7126 C   0  0  0  0  0  0  0  0  0  0  0  0
    1.7466    2.4726   -0.1904 C   0  0  0  0  0  0  0  0  0  0  0  0
    0.7299    1.6530   -0.6243 O   0  0  0  0  0  0  0  0  0  0  0  0
    0.6295    0.4314   -0.1389 N   0  0  0  0  0  0  0  0  0  0  0  0
   -0.3993   -0.3187   -0.3510 C   0  0  0  0  0  0  0  0  0  0  0  0
   -1.5679    0.1687   -1.2027 C   0  0  2  0  0  0  0  0  0  0  0  0
   -2.3198    1.3907   -0.6059 C   0  0  0  0  0  0  0  0  0  0  0  0
   -2.7679    1.2210    0.7787 N   0  0  0  0  0  0  0  0  0  0  0  0
   -1.9972    1.1345    1.8771 C   0  0  0  0  0  0  0  0  0  0  0  0
   -2.8221    1.0354    2.9719 C   0  0  0  0  0  0  0  0  0  0  0  0
   -4.1062    1.0640    2.5590 N   0  0  0  0  0  0  0  0  0  0  0  0
   -4.0417    1.1843    1.2161 C   0  0  0  0  0  0  0  0  0  0  0  0
   -2.4974   -1.0064   -1.5680 C   0  0  0  0  0  0  0  0  0  0  0  0
   -2.9006   -1.8607   -0.3724 C   0  0  0  0  0  0  0  0  0  0  0  0
   -1.6730   -2.4041    0.3245 C   0  0  0  0  0  0  0  0  0  0  0  0
   -0.4680   -1.6537    0.3266 C   0  0  0  0  0  0  0  0  0  0  0  0
    0.6540   -2.1573    1.0134 C   0  0  0  0  0  0  0  0  0  0  0  0
    0.5891   -3.3824    1.6760 C   0  0  0  0  0  0  0  0  0  0  0  0
   -0.5931   -4.1187    1.6762 C   0  0  0  0  0  0  0  0  0  0  0  0
   -1.7253   -3.6392    1.0124 C   0  0  0  0  0  0  0  0  0  0  0  0
   -3.1968   -4.6068    1.0705 Cl  0  0  0  0  0  0  0  0  0  0  0  0
    4.0399    1.4710    0.1617 C   0  0  0  0  0  0  0  0  0  0  0  0
    5.2694    1.0293   -0.3366 C   0  0  0  0  0  0  0  0  0  0  0  0
    5.5444    1.1167   -1.7043 C   0  0  0  0  0  0  0  0  0  0  0  0
    2.6111    2.4758   -2.7669 H   0  0  0  0  0  0  0  0  0  0  0  0
    1.5734    3.5113   -0.5424 H   0  0  0  0  0  0  0  0  0  0  0  0
    1.7299    2.4915    0.9224 H   0  0  0  0  0  0  0  0  0  0  0  0
   -1.1739    0.5073   -2.1872 H   0  0  0  0  0  0  0  0  0  0  0  0
   -3.1903    1.6076   -1.2640 H   0  0  0  0  0  0  0  0  0  0  0  0
   -1.6731    2.2916   -0.6406 H   0  0  0  0  0  0  0  0  0  0  0  0
   -0.9168    1.1634    1.8906 H   0  0  0  0  0  0  0  0  0  0  0  0
   -2.5102    0.9625    4.0051 H   0  0  0  0  0  0  0  0  0  0  0  0
   -4.9103    1.2458    0.5737 H   0  0  0  0  0  0  0  0  0  0  0  0
   -1.9378   -1.6797   -2.2580 H   0  0  0  0  0  0  0  0  0  0  0  0
   -3.3906   -0.6450   -2.1221 H   0  0  0  0  0  0  0  0  0  0  0  0
   -3.5177   -2.6906   -0.7768 H   0  0  0  0  0  0  0  0  0  0  0  0
   -3.5238   -1.3027    0.3513 H   0  0  0  0  0  0  0  0  0  0  0  0
    1.5826   -1.6014    1.0385 H   0  0  0  0  0  0  0  0  0  0  0  0
    1.4586   -3.7596    2.1988 H   0  0  0  0  0  0  0  0  0  0  0  0
   -0.6325   -5.0649    2.2013 H   0  0  0  0  0  0  0  0  0  0  0  0
    3.8390    1.3989    1.2234 H   0  0  0  0  0  0  0  0  0  0  0  0
    6.0108    0.6215    0.3384 H   0  0  0  0  0  0  0  0  0  0  0  0
    6.5010    0.7804   -2.0833 H   0  0  0  0  0  0  0  0  0  0  0  0
  2  1  1  0  0  0  0
  3  2  2  0  0  0  0
  3 28  1  0  0  0  0
  4  3  1  0  0  0  0
  5  4  1  0  0  0  0
  5 29  1  0  0  0  0
  5 30  1  0  0  0  0
  6  5  1  0  0  0  0
  7  6  1  0  0  0  0
  8  7  2  0  0  0  0
  9  8  1  0  0  0  0
  9 31  1  6  0  0  0
 10  9  1  0  0  0  0
 10 32  1  0  0  0  0
 10 33  1  0  0  0  0
 11 10  1  0  0  0  0
 12 11  1  0  0  0  0
 12 34  1  0  0  0  0
 13 12  2  0  0  0  0
 13 35  1  0  0  0  0
 14 13  1  0  0  0  0
 15 14  2  0  0  0  0
 15 11  1  0  0  0  0
 15 36  1  0  0  0  0
 16  9  1  0  0  0  0
 16 37  1  0  0  0  0
 16 38  1  0  0  0  0
 17 16  1  0  0  0  0
 17 39  1  0  0  0  0
 17 40  1  0  0  0  0
 18 17  1  0  0  0  0
 19 18  2  0  0  0  0
 19  8  1  0  0  0  0
 20 19  1  0  0  0  0
 20 41  1  0  0  0  0
 21 20  2  0  0  0  0
 21 42  1  0  0  0  0
 22 21  1  0  0  0  0
 22 43  1  0  0  0  0
 23 22  2  0  0  0  0
 23 18  1  0  0  0  0
 24 23  1  0  0  0  0
 25  4  2  0  0  0  0
 25 44  1  0  0  0  0
 26 25  1  0  0  0  0
 26 45  1  0  0  0  0
 27 26  2  0  0  0  0
 27  2  1  0  0  0  0
 27 46  1  0  0  0  0
M  END
>  <MOL Chiral Flag>
0

>  <energy>
71.289401230086796

$$$$
