>410.sdf
 OpenBabel10062213253D

 43 46  0  0  0  0  0  0  0  0999 V2000
    2.6713    0.6813   -0.2604 O   0  0  0  0  0  0  0  0  0  0  0  0
    2.5527   -0.4253    0.5087 C   0  0  0  0  0  0  0  0  0  0  0  0
    1.4851   -0.5840    1.3598 C   0  0  0  0  0  0  0  0  0  0  0  0
    0.3115    0.4400    1.4762 C   0  0  2  0  0  0  0  0  0  0  0  0
   -1.2951   -0.4917    1.6236 S   0  0  0  0  0  0  0  0  0  0  0  0
   -2.6618    0.5376    1.0370 C   0  0  0  0  0  0  0  0  0  0  0  0
   -3.7730   -0.1278    0.4995 C   0  0  0  0  0  0  0  0  0  0  0  0
   -4.8858    0.5886    0.0559 C   0  0  0  0  0  0  0  0  0  0  0  0
   -4.8952    1.9818    0.1361 C   0  0  0  0  0  0  0  0  0  0  0  0
   -5.9743    2.6771   -0.3002 F   0  0  0  0  0  0  0  0  0  0  0  0
   -3.7969    2.6566    0.6786 C   0  0  0  0  0  0  0  0  0  0  0  0
   -2.6877    1.9379    1.1440 C   0  0  0  0  0  0  0  0  0  0  0  0
    0.2534    1.4762    0.3659 C   0  0  0  0  0  0  0  0  0  0  0  0
    0.5237    2.8301    0.6441 C   0  0  0  0  0  0  0  0  0  0  0  0
    0.4647    3.7850   -0.3752 C   0  0  0  0  0  0  0  0  0  0  0  0
    0.1381    3.4005   -1.6778 C   0  0  0  0  0  0  0  0  0  0  0  0
   -0.1262    2.0590   -1.9662 C   0  0  0  0  0  0  0  0  0  0  0  0
   -0.0673    1.0979   -0.9523 C   0  0  0  0  0  0  0  0  0  0  0  0
    1.4678   -1.7974    2.2582 C   0  0  0  0  0  0  0  0  0  0  0  0
    0.6111   -1.9104    3.1226 O   0  0  0  0  0  0  0  0  0  0  0  0
    2.4744   -2.8744    2.1061 C   0  0  0  0  0  0  0  0  0  0  0  0
    3.5381   -2.7061    1.2093 C   0  0  0  0  0  0  0  0  0  0  0  0
    4.4967   -3.7269    1.0640 C   0  0  0  0  0  0  0  0  0  0  0  0
    4.3817   -4.9098    1.7984 C   0  0  0  0  0  0  0  0  0  0  0  0
    3.3184   -5.0813    2.6855 C   0  0  0  0  0  0  0  0  0  0  0  0
    2.3705   -4.0683    2.8455 C   0  0  0  0  0  0  0  0  0  0  0  0
    3.6302   -1.4568    0.4267 C   0  0  0  0  0  0  0  0  0  0  0  0
    4.5813   -1.2787   -0.3212 O   0  0  0  0  0  0  0  0  0  0  0  0
    3.4262    0.8309   -0.8464 H   0  0  0  0  0  0  0  0  0  0  0  0
    0.4537    0.9431    2.4570 H   0  0  0  0  0  0  0  0  0  0  0  0
   -3.7787   -1.2092    0.4388 H   0  0  0  0  0  0  0  0  0  0  0  0
   -5.7409    0.0607   -0.3472 H   0  0  0  0  0  0  0  0  0  0  0  0
   -3.8093    3.7365    0.7473 H   0  0  0  0  0  0  0  0  0  0  0  0
   -1.8662    2.4754    1.5847 H   0  0  0  0  0  0  0  0  0  0  0  0
    0.7780    3.1436    1.6489 H   0  0  0  0  0  0  0  0  0  0  0  0
    0.6714    4.8245   -0.1546 H   0  0  0  0  0  0  0  0  0  0  0  0
    0.0908    4.1427   -2.4643 H   0  0  0  0  0  0  0  0  0  0  0  0
   -0.3776    1.7639   -2.9765 H   0  0  0  0  0  0  0  0  0  0  0  0
   -0.2740    0.0617   -1.1877 H   0  0  0  0  0  0  0  0  0  0  0  0
    5.3263   -3.6120    0.3777 H   0  0  0  0  0  0  0  0  0  0  0  0
    5.1157   -5.6959    1.6769 H   0  0  0  0  0  0  0  0  0  0  0  0
    3.2274   -6.0008    3.2492 H   0  0  0  0  0  0  0  0  0  0  0  0
    1.5505   -4.2202    3.5364 H   0  0  0  0  0  0  0  0  0  0  0  0
  1 29  1  0  0  0  0
  2  1  1  0  0  0  0
  3  2  2  0  0  0  0
  4  3  1  0  0  0  0
  4 30  1  1  0  0  0
  5  4  1  0  0  0  0
  6  5  1  0  0  0  0
  7  6  2  0  0  0  0
  7 31  1  0  0  0  0
  8  7  1  0  0  0  0
  8 32  1  0  0  0  0
  9  8  2  0  0  0  0
 10  9  1  0  0  0  0
 11  9  1  0  0  0  0
 11 33  1  0  0  0  0
 12 11  2  0  0  0  0
 12  6  1  0  0  0  0
 12 34  1  0  0  0  0
 13  4  1  0  0  0  0
 14 13  2  0  0  0  0
 14 35  1  0  0  0  0
 15 14  1  0  0  0  0
 15 36  1  0  0  0  0
 16 15  2  0  0  0  0
 16 37  1  0  0  0  0
 17 16  1  0  0  0  0
 17 38  1  0  0  0  0
 18 17  2  0  0  0  0
 18 13  1  0  0  0  0
 18 39  1  0  0  0  0
 19  3  1  0  0  0  0
 20 19  2  0  0  0  0
 21 19  1  0  0  0  0
 22 21  2  0  0  0  0
 23 22  1  0  0  0  0
 23 40  1  0  0  0  0
 24 23  2  0  0  0  0
 24 41  1  0  0  0  0
 25 24  1  0  0  0  0
 25 42  1  0  0  0  0
 26 25  2  0  0  0  0
 26 21  1  0  0  0  0
 26 43  1  0  0  0  0
 27 22  1  0  0  0  0
 27  2  1  0  0  0  0
 28 27  2  0  0  0  0
M  END
>  <MOL Chiral Flag>
0

>  <energy>
96.481595492619888

$$$$
