>412.sdf
 OpenBabel10062213273D

 51 54  0  0  0  0  0  0  0  0999 V2000
    4.3601    2.6857    1.6474 O   0  0  0  0  0  0  0  0  0  0  0  0
    3.0288    2.6240    1.8541 C   0  0  0  0  0  0  0  0  0  0  0  0
    2.2804    3.7950    2.0443 C   0  0  0  0  0  0  0  0  0  0  0  0
    0.8952    3.7239    2.2596 C   0  0  0  0  0  0  0  0  0  0  0  0
    0.1767    4.8525    2.4408 O   0  0  0  0  0  0  0  0  0  0  0  0
    0.2551    2.4711    2.2798 C   0  0  0  0  0  0  0  0  0  0  0  0
   -1.2346    2.3703    2.5117 C   0  0  0  0  0  0  0  0  0  0  0  0
   -1.7879    0.9624    2.2140 C   0  0  1  0  0  0  0  0  0  0  0  0
   -1.9037    0.7500    0.8469 O   0  0  0  0  0  0  0  0  0  0  0  0
   -3.0909    0.4965    0.2305 C   0  0  0  0  0  0  0  0  0  0  0  0
   -4.1306    0.9497    0.6874 O   0  0  0  0  0  0  0  0  0  0  0  0
   -3.1310   -0.4184   -0.9372 C   0  0  0  0  0  0  0  0  0  0  0  0
   -4.3572   -0.7446   -1.5430 C   0  0  0  0  0  0  0  0  0  0  0  0
   -4.4036   -1.6474   -2.6154 C   0  0  0  0  0  0  0  0  0  0  0  0
   -5.5872   -1.9604   -3.1852 O   0  0  0  0  0  0  0  0  0  0  0  0
   -3.2167   -2.2333   -3.0909 C   0  0  0  0  0  0  0  0  0  0  0  0
   -3.2450   -3.1125   -4.1174 O   0  0  0  0  0  0  0  0  0  0  0  0
   -1.9863   -1.9064   -2.4888 C   0  0  0  0  0  0  0  0  0  0  0  0
   -0.8324   -2.4580   -2.9195 O   0  0  0  0  0  0  0  0  0  0  0  0
   -1.9505   -1.0034   -1.4204 C   0  0  0  0  0  0  0  0  0  0  0  0
   -0.8309   -0.1120    2.7632 C   0  0  2  0  0  0  0  0  0  0  0  0
    0.4237    0.0788    2.1965 O   0  0  0  0  0  0  0  0  0  0  0  0
    1.0166    1.2958    2.1169 C   0  0  0  0  0  0  0  0  0  0  0  0
    2.3937    1.3789    1.8905 C   0  0  0  0  0  0  0  0  0  0  0  0
   -1.3552   -1.5070    2.4460 C   0  0  0  0  0  0  0  0  0  0  0  0
   -2.5906   -1.9231    2.9692 C   0  0  0  0  0  0  0  0  0  0  0  0
   -3.1110   -3.1842    2.6600 C   0  0  0  0  0  0  0  0  0  0  0  0
   -4.3060   -3.5439    3.1757 O   0  0  0  0  0  0  0  0  0  0  0  0
   -2.3942   -4.0540    1.8173 C   0  0  0  0  0  0  0  0  0  0  0  0
   -2.9067   -5.2680    1.5174 O   0  0  0  0  0  0  0  0  0  0  0  0
   -1.1533   -3.6506    1.2929 C   0  0  0  0  0  0  0  0  0  0  0  0
   -0.4625   -4.4785    0.4803 O   0  0  0  0  0  0  0  0  0  0  0  0
   -0.6387   -2.3858    1.6090 C   0  0  0  0  0  0  0  0  0  0  0  0
    4.8335    3.5298    1.6249 H   0  0  0  0  0  0  0  0  0  0  0  0
    2.7742    4.7590    2.0241 H   0  0  0  0  0  0  0  0  0  0  0  0
    0.5904    5.7275    2.4319 H   0  0  0  0  0  0  0  0  0  0  0  0
   -1.4059    2.6343    3.5778 H   0  0  0  0  0  0  0  0  0  0  0  0
   -1.7959    3.0938    1.8809 H   0  0  0  0  0  0  0  0  0  0  0  0
   -2.7842    0.8866    2.7045 H   0  0  0  0  0  0  0  0  0  0  0  0
   -5.2784   -0.3084   -1.1774 H   0  0  0  0  0  0  0  0  0  0  0  0
   -6.4206   -1.5783   -2.8751 H   0  0  0  0  0  0  0  0  0  0  0  0
   -4.0681   -3.3728   -4.5545 H   0  0  0  0  0  0  0  0  0  0  0  0
   -0.8025   -3.0944   -3.6478 H   0  0  0  0  0  0  0  0  0  0  0  0
   -0.9971   -0.7708   -0.9612 H   0  0  0  0  0  0  0  0  0  0  0  0
   -0.7419    0.0065    3.8663 H   0  0  0  0  0  0  0  0  0  0  0  0
    2.9738    0.4735    1.7606 H   0  0  0  0  0  0  0  0  0  0  0  0
   -3.1564   -1.2624    3.6141 H   0  0  0  0  0  0  0  0  0  0  0  0
   -4.7139   -4.4009    2.9885 H   0  0  0  0  0  0  0  0  0  0  0  0
   -2.4507   -5.8950    0.9386 H   0  0  0  0  0  0  0  0  0  0  0  0
    0.3906   -4.2259    0.0989 H   0  0  0  0  0  0  0  0  0  0  0  0
    0.3130   -2.0910    1.1863 H   0  0  0  0  0  0  0  0  0  0  0  0
  1 34  1  0  0  0  0
  2  1  1  0  0  0  0
  3  2  2  0  0  0  0
  3 35  1  0  0  0  0
  4  3  1  0  0  0  0
  5  4  1  0  0  0  0
  5 36  1  0  0  0  0
  6  4  2  0  0  0  0
  7  6  1  0  0  0  0
  7 37  1  0  0  0  0
  7 38  1  0  0  0  0
  8  7  1  0  0  0  0
  8 39  1  1  0  0  0
  9  8  1  0  0  0  0
 10  9  1  0  0  0  0
 11 10  2  0  0  0  0
 12 10  1  0  0  0  0
 13 12  2  0  0  0  0
 13 40  1  0  0  0  0
 14 13  1  0  0  0  0
 15 14  1  0  0  0  0
 15 41  1  0  0  0  0
 16 14  2  0  0  0  0
 17 16  1  0  0  0  0
 17 42  1  0  0  0  0
 18 16  1  0  0  0  0
 19 18  1  0  0  0  0
 19 43  1  0  0  0  0
 20 18  2  0  0  0  0
 20 12  1  0  0  0  0
 20 44  1  0  0  0  0
 21  8  1  0  0  0  0
 21 45  1  1  0  0  0
 22 21  1  0  0  0  0
 23 22  1  0  0  0  0
 23  6  1  0  0  0  0
 24 23  2  0  0  0  0
 24  2  1  0  0  0  0
 24 46  1  0  0  0  0
 25 21  1  0  0  0  0
 26 25  2  0  0  0  0
 26 47  1  0  0  0  0
 27 26  1  0  0  0  0
 28 27  1  0  0  0  0
 28 48  1  0  0  0  0
 29 27  2  0  0  0  0
 30 29  1  0  0  0  0
 30 49  1  0  0  0  0
 31 29  1  0  0  0  0
 32 31  1  0  0  0  0
 32 50  1  0  0  0  0
 33 31  2  0  0  0  0
 33 25  1  0  0  0  0
 33 51  1  0  0  0  0
M  END
>  <MOL Chiral Flag>
0

>  <energy>
49.612601360497017

$$$$
