>415.sdf
 OpenBabel10062213293D

 71 73  0  0  0  0  0  0  0  0999 V2000
   -3.7477    2.2166    1.4500 C   0  0  0  0  0  0  0  0  0  0  0  0
   -4.6429    1.6438    0.3354 C   0  0  0  0  0  0  0  0  0  0  0  0
   -5.1961    0.2669    0.7693 C   0  0  0  0  0  0  0  0  0  0  0  0
   -5.8182    2.5957    0.0818 C   0  0  0  0  0  0  0  0  0  0  0  0
   -3.9245    1.5487   -0.8503 O   0  0  0  0  0  0  0  0  0  0  0  0
   -2.9322    0.6517   -1.0572 C   0  0  0  0  0  0  0  0  0  0  0  0
   -3.2246   -0.4736   -1.4255 O   0  0  0  0  0  0  0  0  0  0  0  0
   -1.6337    0.9989   -0.8256 N   0  0  0  0  0  0  0  0  0  0  0  0
   -0.5169    0.0671   -0.9790 C   0  0  1  0  0  0  0  0  0  0  0  0
   -0.6718   -1.1056    0.0568 C   0  0  0  0  0  0  0  0  0  0  0  0
   -0.4544   -2.5494   -0.3364 C   0  0  0  0  0  0  0  0  0  0  0  0
   -1.2924   -3.1718   -1.2788 C   0  0  0  0  0  0  0  0  0  0  0  0
   -1.1441   -4.5281   -1.5738 C   0  0  0  0  0  0  0  0  0  0  0  0
   -0.1705   -5.2842   -0.9208 C   0  0  0  0  0  0  0  0  0  0  0  0
    0.6635   -4.6818    0.0242 C   0  0  0  0  0  0  0  0  0  0  0  0
    0.5268   -3.3195    0.3158 C   0  0  0  0  0  0  0  0  0  0  0  0
   -0.2191   -0.1846   -2.4988 C   0  0  2  0  0  0  0  0  0  0  0  0
   -1.2900   -0.8196   -3.1417 O   0  0  0  0  0  0  0  0  0  0  0  0
    1.0937   -0.9530   -2.8145 C   0  0  0  0  0  0  0  0  0  0  0  0
    2.2992   -0.4469   -2.1160 N   0  3  2  0  0  0  0  0  0  0  0  0
    2.6022    0.9724   -2.4032 C   0  0  0  0  0  0  0  0  0  0  0  0
    3.8069    1.4184   -1.5626 C   0  0  0  0  0  0  0  0  0  0  0  0
    5.0113    0.6069   -1.8617 N   0  3  1  0  0  0  0  0  0  0  0  0
    6.1244    1.0514   -0.9741 C   0  0  0  0  0  0  0  0  0  0  0  0
    7.5059    0.8354   -1.5687 C   0  0  0  0  0  0  0  0  0  0  0  0
    8.2673    1.9540   -1.9610 C   0  0  0  0  0  0  0  0  0  0  0  0
    9.5404    1.7891   -2.5099 C   0  0  0  0  0  0  0  0  0  0  0  0
   10.0721    0.5094   -2.6712 C   0  0  0  0  0  0  0  0  0  0  0  0
    9.3348   -0.6078   -2.2739 C   0  0  0  0  0  0  0  0  0  0  0  0
    8.0604   -0.4498   -1.7199 C   0  0  0  0  0  0  0  0  0  0  0  0
    4.7039   -0.8346   -1.6863 C   0  0  0  0  0  0  0  0  0  0  0  0
    3.4715   -1.2571   -2.5010 C   0  0  0  0  0  0  0  0  0  0  0  0
   -4.3241    2.3395    2.3923 H   0  0  0  0  0  0  0  0  0  0  0  0
   -3.3464    3.2083    1.1495 H   0  0  0  0  0  0  0  0  0  0  0  0
   -2.8902    1.5407    1.6549 H   0  0  0  0  0  0  0  0  0  0  0  0
   -5.8114    0.3622    1.6896 H   0  0  0  0  0  0  0  0  0  0  0  0
   -4.3683   -0.4408    0.9930 H   0  0  0  0  0  0  0  0  0  0  0  0
   -5.8241   -0.1730   -0.0345 H   0  0  0  0  0  0  0  0  0  0  0  0
   -6.4332    2.7213    0.9986 H   0  0  0  0  0  0  0  0  0  0  0  0
   -6.4671    2.1906   -0.7255 H   0  0  0  0  0  0  0  0  0  0  0  0
   -5.4474    3.5920   -0.2406 H   0  0  0  0  0  0  0  0  0  0  0  0
   -1.4321    1.9549   -0.4953 H   0  0  0  0  0  0  0  0  0  0  0  0
    0.3760    0.6274   -0.6317 H   0  0  0  0  0  0  0  0  0  0  0  0
   -1.6925   -1.0856    0.4896 H   0  0  0  0  0  0  0  0  0  0  0  0
   -0.0284   -0.8487    0.9292 H   0  0  0  0  0  0  0  0  0  0  0  0
   -2.0758   -2.6226   -1.7695 H   0  0  0  0  0  0  0  0  0  0  0  0
   -1.7989   -4.9961   -2.2975 H   0  0  0  0  0  0  0  0  0  0  0  0
   -0.0713   -6.3396   -1.1389 H   0  0  0  0  0  0  0  0  0  0  0  0
    1.4067   -5.2747    0.5414 H   0  0  0  0  0  0  0  0  0  0  0  0
    1.1672   -2.8739    1.0668 H   0  0  0  0  0  0  0  0  0  0  0  0
   -0.1231    0.8341   -2.9412 H   0  0  0  0  0  0  0  0  0  0  0  0
   -1.1749   -0.6795   -4.1182 H   0  0  0  0  0  0  0  0  0  0  0  0
    1.2512   -0.9257   -3.9176 H   0  0  0  0  0  0  0  0  0  0  0  0
    0.9457   -2.0178   -2.5394 H   0  0  0  0  0  0  0  0  0  0  0  0
    2.1500   -0.5759   -1.0877 H   0  0  0  0  0  0  0  0  0  0  0  0
    1.7597    1.6376   -2.1296 H   0  0  0  0  0  0  0  0  0  0  0  0
    2.8154    1.1207   -3.4870 H   0  0  0  0  0  0  0  0  0  0  0  0
    3.5404    1.3324   -0.4837 H   0  0  0  0  0  0  0  0  0  0  0  0
    4.0019    2.4924   -1.7853 H   0  0  0  0  0  0  0  0  0  0  0  0
    5.2681    0.7925   -2.8614 H   0  0  0  0  0  0  0  0  0  0  0  0
    6.0535    0.5953    0.0390 H   0  0  0  0  0  0  0  0  0  0  0  0
    6.0302    2.1481   -0.8016 H   0  0  0  0  0  0  0  0  0  0  0  0
    7.8726    2.9561   -1.8458 H   0  0  0  0  0  0  0  0  0  0  0  0
   10.1141    2.6561   -2.8105 H   0  0  0  0  0  0  0  0  0  0  0  0
   11.0585    0.3841   -3.0978 H   0  0  0  0  0  0  0  0  0  0  0  0
    9.7535   -1.5989   -2.3905 H   0  0  0  0  0  0  0  0  0  0  0  0
    7.5291   -1.3298   -1.3997 H   0  0  0  0  0  0  0  0  0  0  0  0
    4.5068   -1.0595   -0.6133 H   0  0  0  0  0  0  0  0  0  0  0  0
    5.5351   -1.4668   -2.0393 H   0  0  0  0  0  0  0  0  0  0  0  0
    3.2802   -2.3369   -2.3079 H   0  0  0  0  0  0  0  0  0  0  0  0
    3.6884   -1.1370   -3.5884 H   0  0  0  0  0  0  0  0  0  0  0  0
  1 33  1  0  0  0  0
  1 34  1  0  0  0  0
  1 35  1  0  0  0  0
  2  1  1  0  0  0  0
  3  2  1  0  0  0  0
  3 36  1  0  0  0  0
  3 37  1  0  0  0  0
  3 38  1  0  0  0  0
  4  2  1  0  0  0  0
  4 39  1  0  0  0  0
  4 40  1  0  0  0  0
  4 41  1  0  0  0  0
  5  2  1  0  0  0  0
  6  5  1  0  0  0  0
  7  6  2  0  0  0  0
  8  6  1  0  0  0  0
  8 42  1  0  0  0  0
  9  8  1  0  0  0  0
  9 43  1  1  0  0  0
 10  9  1  0  0  0  0
 10 44  1  0  0  0  0
 10 45  1  0  0  0  0
 11 10  1  0  0  0  0
 12 11  2  0  0  0  0
 12 46  1  0  0  0  0
 13 12  1  0  0  0  0
 13 47  1  0  0  0  0
 14 13  2  0  0  0  0
 14 48  1  0  0  0  0
 15 14  1  0  0  0  0
 15 49  1  0  0  0  0
 16 15  2  0  0  0  0
 16 11  1  0  0  0  0
 16 50  1  0  0  0  0
 17  9  1  0  0  0  0
 17 51  1  6  0  0  0
 18 17  1  0  0  0  0
 18 52  1  0  0  0  0
 19 17  1  0  0  0  0
 19 53  1  0  0  0  0
 19 54  1  0  0  0  0
 20 19  1  0  0  0  0
 20 55  1  1  0  0  0
 21 20  1  0  0  0  0
 21 56  1  0  0  0  0
 21 57  1  0  0  0  0
 22 21  1  0  0  0  0
 22 58  1  0  0  0  0
 22 59  1  0  0  0  0
 23 22  1  0  0  0  0
 23 60  1  6  0  0  0
 24 23  1  0  0  0  0
 24 61  1  0  0  0  0
 24 62  1  0  0  0  0
 25 24  1  0  0  0  0
 26 25  2  0  0  0  0
 26 63  1  0  0  0  0
 27 26  1  0  0  0  0
 27 64  1  0  0  0  0
 28 27  2  0  0  0  0
 28 65  1  0  0  0  0
 29 28  1  0  0  0  0
 29 66  1  0  0  0  0
 30 29  2  0  0  0  0
 30 25  1  0  0  0  0
 30 67  1  0  0  0  0
 31 23  1  0  0  0  0
 31 68  1  0  0  0  0
 31 69  1  0  0  0  0
 32 31  1  0  0  0  0
 32 20  1  0  0  0  0
 32 70  1  0  0  0  0
 32 71  1  0  0  0  0
M  CHG  2  20   1  23   1
M  END
>  <MOL Chiral Flag>
0

>  <energy>
124.33084169936372

$$$$
