>419.sdf
 OpenBabel10062213323D

 64 69  0  0  0  0  0  0  0  0999 V2000
   -8.5373    1.6977    0.4542 O   0  0  0  0  0  0  0  0  0  0  0  0
   -7.0679    1.6637    0.0053 S   0  0  0  0  0  0  0  0  0  0  0  0
   -7.1743    0.6109   -1.1074 O   0  0  0  0  0  0  0  0  0  0  0  0
   -6.3122    0.8915    1.4312 N   0  0  0  0  0  0  0  0  0  0  0  0
   -5.4862   -0.2964    1.4313 C   0  0  0  0  0  0  0  0  0  0  0  0
   -4.8261   -0.7727    0.2808 C   0  0  0  0  0  0  0  0  0  0  0  0
   -4.0505   -1.9538    0.3307 C   0  0  0  0  0  0  0  0  0  0  0  0
   -3.9179   -2.6876    1.5186 C   0  0  0  0  0  0  0  0  0  0  0  0
   -2.9261   -4.4010    1.5169 Se  0  0  0  0  0  0  0  0  0  0  0  0
   -0.7005   -3.5970    1.9859 Se  0  0  0  0  0  0  0  0  0  0  0  0
    0.5988   -4.8853    1.2230 C   0  0  0  0  0  0  0  0  0  0  0  0
    0.4658   -6.2916    1.2653 C   0  0  0  0  0  0  0  0  0  0  0  0
    1.5253   -7.1305    0.8184 C   0  0  0  0  0  0  0  0  0  0  0  0
    2.7241   -6.5668    0.3151 C   0  0  0  0  0  0  0  0  0  0  0  0
    3.8616   -7.3347   -0.1275 N   0  0  0  0  0  0  0  0  0  0  0  0
    4.2873   -8.9828    0.3629 S   0  0  0  0  0  0  0  0  0  0  0  0
    3.0170   -9.8418    0.3034 O   0  0  0  0  0  0  0  0  0  0  0  0
    5.0667   -9.5120   -0.8521 O   0  0  0  0  0  0  0  0  0  0  0  0
    5.2642   -9.1202    1.8867 C   0  0  0  0  0  0  0  0  0  0  0  0
    6.5719   -9.6720    1.9314 C   0  0  0  0  0  0  0  0  0  0  0  0
    7.1732  -10.1637    0.8075 N   0  0  0  0  0  0  0  0  0  0  0  0
    8.4294  -10.6915    0.8369 C   0  0  0  0  0  0  0  0  0  0  0  0
    9.1481  -10.7427    2.0339 C   0  0  0  0  0  0  0  0  0  0  0  0
    8.5686  -10.2502    3.2017 C   0  0  0  0  0  0  0  0  0  0  0  0
    7.2764   -9.7117    3.1618 C   0  0  0  0  0  0  0  0  0  0  0  0
    6.6799   -9.2094    4.3253 C   0  0  0  0  0  0  0  0  0  0  0  0
    5.3950   -8.6712    4.2737 C   0  0  0  0  0  0  0  0  0  0  0  0
    4.6943   -8.6260    3.0665 C   0  0  0  0  0  0  0  0  0  0  0  0
    2.8177   -5.1690    0.2513 C   0  0  0  0  0  0  0  0  0  0  0  0
    1.7821   -4.3476    0.7052 C   0  0  0  0  0  0  0  0  0  0  0  0
   -4.5666   -2.2133    2.6745 C   0  0  0  0  0  0  0  0  0  0  0  0
   -5.3319   -1.0276    2.6321 C   0  0  0  0  0  0  0  0  0  0  0  0
   -6.6825    3.3658   -0.5399 C   0  0  0  0  0  0  0  0  0  0  0  0
   -7.4965    4.0825   -1.4696 C   0  0  0  0  0  0  0  0  0  0  0  0
   -8.6132    3.5219   -2.0173 N   0  0  0  0  0  0  0  0  0  0  0  0
   -9.3990    4.2040   -2.9054 C   0  0  0  0  0  0  0  0  0  0  0  0
   -9.0738    5.5105   -3.2820 C   0  0  0  0  0  0  0  0  0  0  0  0
   -7.9432    6.1159   -2.7442 C   0  0  0  0  0  0  0  0  0  0  0  0
   -7.1435    5.4112   -1.8321 C   0  0  0  0  0  0  0  0  0  0  0  0
   -6.0100    6.0112   -1.2799 C   0  0  0  0  0  0  0  0  0  0  0  0
   -5.2226    5.3080   -0.3693 C   0  0  0  0  0  0  0  0  0  0  0  0
   -5.5552    3.9988   -0.0026 C   0  0  0  0  0  0  0  0  0  0  0  0
   -6.6704    1.2146    2.3426 H   0  0  0  0  0  0  0  0  0  0  0  0
   -4.9009   -0.2409   -0.6540 H   0  0  0  0  0  0  0  0  0  0  0  0
   -3.5625   -2.3117   -0.5639 H   0  0  0  0  0  0  0  0  0  0  0  0
   -0.4350   -6.7397    1.6634 H   0  0  0  0  0  0  0  0  0  0  0  0
    1.3972   -8.1995    0.8738 H   0  0  0  0  0  0  0  0  0  0  0  0
    4.6335   -6.8156   -0.5727 H   0  0  0  0  0  0  0  0  0  0  0  0
    8.8772  -11.0738   -0.0717 H   0  0  0  0  0  0  0  0  0  0  0  0
   10.1477  -11.1603    2.0576 H   0  0  0  0  0  0  0  0  0  0  0  0
    9.1268  -10.2881    4.1309 H   0  0  0  0  0  0  0  0  0  0  0  0
    7.2110   -9.2327    5.2699 H   0  0  0  0  0  0  0  0  0  0  0  0
    4.9395   -8.2817    5.1743 H   0  0  0  0  0  0  0  0  0  0  0  0
    3.7011   -8.1983    3.0445 H   0  0  0  0  0  0  0  0  0  0  0  0
    3.7249   -4.7088   -0.1207 H   0  0  0  0  0  0  0  0  0  0  0  0
    1.9170   -3.2755    0.6806 H   0  0  0  0  0  0  0  0  0  0  0  0
   -4.4991   -2.7665    3.6047 H   0  0  0  0  0  0  0  0  0  0  0  0
   -5.8323   -0.6912    3.5340 H   0  0  0  0  0  0  0  0  0  0  0  0
  -10.2802    3.7357   -3.3233 H   0  0  0  0  0  0  0  0  0  0  0  0
   -9.6957    6.0531   -3.9869 H   0  0  0  0  0  0  0  0  0  0  0  0
   -7.6920    7.1314   -3.0357 H   0  0  0  0  0  0  0  0  0  0  0  0
   -5.7373    7.0257   -1.5513 H   0  0  0  0  0  0  0  0  0  0  0  0
   -4.3499    5.7830    0.0572 H   0  0  0  0  0  0  0  0  0  0  0  0
   -4.9333    3.4755    0.7094 H   0  0  0  0  0  0  0  0  0  0  0  0
  2  1  2  0  0  0  0
  3  2  2  0  0  0  0
  4  2  1  0  0  0  0
  4 43  1  0  0  0  0
  5  4  1  0  0  0  0
  6  5  2  0  0  0  0
  6 44  1  0  0  0  0
  7  6  1  0  0  0  0
  7 45  1  0  0  0  0
  8  7  2  0  0  0  0
  9  8  1  0  0  0  0
 10  9  1  0  0  0  0
 11 10  1  0  0  0  0
 12 11  2  0  0  0  0
 12 46  1  0  0  0  0
 13 12  1  0  0  0  0
 13 47  1  0  0  0  0
 14 13  2  0  0  0  0
 15 14  1  0  0  0  0
 15 48  1  0  0  0  0
 16 15  1  0  0  0  0
 17 16  2  0  0  0  0
 18 16  2  0  0  0  0
 19 16  1  0  0  0  0
 20 19  2  0  0  0  0
 21 20  1  0  0  0  0
 22 21  2  0  0  0  0
 22 49  1  0  0  0  0
 23 22  1  0  0  0  0
 23 50  1  0  0  0  0
 24 23  2  0  0  0  0
 24 51  1  0  0  0  0
 25 24  1  0  0  0  0
 25 20  1  0  0  0  0
 26 25  2  0  0  0  0
 26 52  1  0  0  0  0
 27 26  1  0  0  0  0
 27 53  1  0  0  0  0
 28 27  2  0  0  0  0
 28 19  1  0  0  0  0
 28 54  1  0  0  0  0
 29 14  1  0  0  0  0
 29 55  1  0  0  0  0
 30 29  2  0  0  0  0
 30 11  1  0  0  0  0
 30 56  1  0  0  0  0
 31  8  1  0  0  0  0
 31 57  1  0  0  0  0
 32 31  2  0  0  0  0
 32  5  1  0  0  0  0
 32 58  1  0  0  0  0
 33  2  1  0  0  0  0
 34 33  2  0  0  0  0
 35 34  1  0  0  0  0
 36 35  2  0  0  0  0
 36 59  1  0  0  0  0
 37 36  1  0  0  0  0
 37 60  1  0  0  0  0
 38 37  2  0  0  0  0
 38 61  1  0  0  0  0
 39 38  1  0  0  0  0
 39 34  1  0  0  0  0
 40 39  2  0  0  0  0
 40 62  1  0  0  0  0
 41 40  1  0  0  0  0
 41 63  1  0  0  0  0
 42 41  2  0  0  0  0
 42 33  1  0  0  0  0
 42 64  1  0  0  0  0
M  END
>  <MOL Chiral Flag>
0

>  <energy>
34.901501234545961

$$$$
