>42.sdf
 OpenBabel10052218063D

 42 44  0  0  0  0  0  0  0  0999 V2000
    4.7701    1.4211    3.2953 F   0  0  0  0  0  0  0  0  0  0  0  0
    5.0861    1.5780    1.9578 C   0  0  0  0  0  0  0  0  0  0  0  0
    6.2339    0.8585    1.6788 F   0  0  0  0  0  0  0  0  0  0  0  0
    5.3360    2.9183    1.7192 F   0  0  0  0  0  0  0  0  0  0  0  0
    3.9499    1.0597    1.1134 C   0  0  0  0  0  0  0  0  0  0  0  0
    3.5515   -0.2803    1.2466 C   0  0  0  0  0  0  0  0  0  0  0  0
    2.4981   -0.7817    0.4806 C   0  0  0  0  0  0  0  0  0  0  0  0
    1.8288    0.0476   -0.4245 C   0  0  0  0  0  0  0  0  0  0  0  0
    0.8261   -0.4598   -1.1687 O   0  0  0  0  0  0  0  0  0  0  0  0
   -0.5117   -0.3992   -0.8142 C   0  0  1  0  0  0  0  0  0  0  0  0
   -1.3636   -0.0936   -2.0665 C   0  0  0  0  0  0  0  0  0  0  0  0
   -1.6032    1.4204   -2.2061 C   0  0  0  0  0  0  0  0  0  0  0  0
   -2.5326    1.8603   -1.1582 N   0  0  0  0  0  0  0  0  0  0  0  0
   -2.2797    2.6701   -0.1155 C   0  0  0  0  0  0  0  0  0  0  0  0
   -3.4363    2.7850    0.6258 C   0  0  0  0  0  0  0  0  0  0  0  0
   -4.4094    2.0563    0.0404 N   0  0  0  0  0  0  0  0  0  0  0  0
   -3.8295    1.5045   -1.0438 C   0  0  0  0  0  0  0  0  0  0  0  0
   -0.9284   -1.6971   -0.1645 C   0  0  0  0  0  0  0  0  0  0  0  0
   -0.5643   -2.9425   -0.7037 C   0  0  0  0  0  0  0  0  0  0  0  0
   -0.9536   -4.1236   -0.0601 C   0  0  0  0  0  0  0  0  0  0  0  0
   -1.7219   -4.0684    1.1078 C   0  0  0  0  0  0  0  0  0  0  0  0
   -2.0968   -2.8342    1.6403 C   0  0  0  0  0  0  0  0  0  0  0  0
   -1.6964   -1.6546    1.0146 C   0  0  0  0  0  0  0  0  0  0  0  0
    2.2229    1.3814   -0.5729 C   0  0  0  0  0  0  0  0  0  0  0  0
    3.2783    1.8887    0.1931 C   0  0  0  0  0  0  0  0  0  0  0  0
    4.0583   -0.9350    1.9451 H   0  0  0  0  0  0  0  0  0  0  0  0
    2.2006   -1.8176    0.5878 H   0  0  0  0  0  0  0  0  0  0  0  0
   -0.6864    0.3955   -0.0543 H   0  0  0  0  0  0  0  0  0  0  0  0
   -2.3667   -0.5671   -1.9937 H   0  0  0  0  0  0  0  0  0  0  0  0
   -0.8698   -0.5264   -2.9638 H   0  0  0  0  0  0  0  0  0  0  0  0
   -0.6325    1.9579   -2.1371 H   0  0  0  0  0  0  0  0  0  0  0  0
   -2.0582    1.6534   -3.1925 H   0  0  0  0  0  0  0  0  0  0  0  0
   -1.3234    3.1264    0.1019 H   0  0  0  0  0  0  0  0  0  0  0  0
   -3.5678    3.3529    1.5369 H   0  0  0  0  0  0  0  0  0  0  0  0
   -4.3475    0.8536   -1.7382 H   0  0  0  0  0  0  0  0  0  0  0  0
    0.0337   -2.9966   -1.6046 H   0  0  0  0  0  0  0  0  0  0  0  0
   -0.6597   -5.0825   -0.4651 H   0  0  0  0  0  0  0  0  0  0  0  0
   -2.0273   -4.9814    1.6013 H   0  0  0  0  0  0  0  0  0  0  0  0
   -2.6969   -2.7886    2.5402 H   0  0  0  0  0  0  0  0  0  0  0  0
   -1.9969   -0.7044    1.4408 H   0  0  0  0  0  0  0  0  0  0  0  0
    1.7169    2.0220   -1.2834 H   0  0  0  0  0  0  0  0  0  0  0  0
    3.5692    2.9228    0.0638 H   0  0  0  0  0  0  0  0  0  0  0  0
  2  1  1  0  0  0  0
  3  2  1  0  0  0  0
  4  2  1  0  0  0  0
  5  2  1  0  0  0  0
  6  5  2  0  0  0  0
  6 26  1  0  0  0  0
  7  6  1  0  0  0  0
  7 27  1  0  0  0  0
  8  7  2  0  0  0  0
  9  8  1  0  0  0  0
 10  9  1  0  0  0  0
 10 28  1  1  0  0  0
 11 10  1  0  0  0  0
 11 29  1  0  0  0  0
 11 30  1  0  0  0  0
 12 11  1  0  0  0  0
 12 31  1  0  0  0  0
 12 32  1  0  0  0  0
 13 12  1  0  0  0  0
 14 13  1  0  0  0  0
 14 33  1  0  0  0  0
 15 14  2  0  0  0  0
 15 34  1  0  0  0  0
 16 15  1  0  0  0  0
 17 16  2  0  0  0  0
 17 13  1  0  0  0  0
 17 35  1  0  0  0  0
 18 10  1  0  0  0  0
 19 18  2  0  0  0  0
 19 36  1  0  0  0  0
 20 19  1  0  0  0  0
 20 37  1  0  0  0  0
 21 20  2  0  0  0  0
 21 38  1  0  0  0  0
 22 21  1  0  0  0  0
 22 39  1  0  0  0  0
 23 22  2  0  0  0  0
 23 18  1  0  0  0  0
 23 40  1  0  0  0  0
 24  8  1  0  0  0  0
 24 41  1  0  0  0  0
 25 24  2  0  0  0  0
 25  5  1  0  0  0  0
 25 42  1  0  0  0  0
M  END
>  <MOL Chiral Flag>
0

>  <energy>
73.877156848933083

$$$$
