>421.sdf
 OpenBabel10062213333D

 47 48  0  0  0  0  0  0  0  0999 V2000
   -2.7304    0.9954    1.3714 C   0  0  0  0  0  0  0  0  0  0  0  0
   -2.7816   -0.3710    0.6765 C   0  0  0  0  0  0  0  0  0  0  0  0
   -3.7777   -0.2331   -0.4979 C   0  0  0  0  0  0  0  0  0  0  0  0
   -1.3772   -0.9108    0.1923 C   0  0  2  0  0  0  0  0  0  0  0  0
   -1.5594   -2.3469   -0.3872 C   0  0  0  0  0  0  0  0  0  0  0  0
   -0.2517   -2.9235   -0.9361 C   0  0  0  0  0  0  0  0  0  0  0  0
    0.8416   -2.9696    0.1371 C   0  0  2  0  0  0  0  0  0  0  0  0
    0.5423   -3.9951    1.2441 C   0  0  0  0  0  0  0  0  0  0  0  0
    1.0520   -1.5496    0.6846 C   0  0  0  0  0  0  0  0  0  0  0  0
   -0.2337   -0.9186    1.2816 C   0  0  1  0  0  0  0  0  0  0  0  0
    0.1034    0.3844    1.6166 O   0  0  0  0  0  0  0  0  0  0  0  0
    0.1917    1.0115    2.8282 C   0  0  0  0  0  0  0  0  0  0  0  0
    0.0405    2.2224    2.8396 O   0  0  0  0  0  0  0  0  0  0  0  0
    0.4690    0.3635    4.1458 C   0  0  0  0  0  0  0  0  0  0  0  0
    0.9441   -0.8820    4.3451 C   0  0  0  0  0  0  0  0  0  0  0  0
    1.2752   -1.4284    5.7010 C   0  0  0  0  0  0  0  0  0  0  0  0
    1.9755   -2.6468    5.7796 C   0  0  0  0  0  0  0  0  0  0  0  0
    2.3356   -3.1837    7.0208 C   0  0  0  0  0  0  0  0  0  0  0  0
    1.9944   -2.5187    8.1991 C   0  0  0  0  0  0  0  0  0  0  0  0
    1.2911   -1.3161    8.1413 C   0  0  0  0  0  0  0  0  0  0  0  0
    0.9326   -0.7677    6.9060 C   0  0  0  0  0  0  0  0  0  0  0  0
   -3.7554    1.3473    1.6180 H   0  0  0  0  0  0  0  0  0  0  0  0
   -2.2313    0.9082    2.3473 H   0  0  0  0  0  0  0  0  0  0  0  0
   -2.2373    1.7560    0.7288 H   0  0  0  0  0  0  0  0  0  0  0  0
   -3.2142   -1.0851    1.4120 H   0  0  0  0  0  0  0  0  0  0  0  0
   -4.0150   -1.1997   -0.9780 H   0  0  0  0  0  0  0  0  0  0  0  0
   -3.3814    0.4680   -1.2642 H   0  0  0  0  0  0  0  0  0  0  0  0
   -4.7522    0.1596   -0.1358 H   0  0  0  0  0  0  0  0  0  0  0  0
   -1.0213   -0.2523   -0.6327 H   0  0  0  0  0  0  0  0  0  0  0  0
   -1.9727   -3.0181    0.3941 H   0  0  0  0  0  0  0  0  0  0  0  0
   -2.2643   -2.3515   -1.2392 H   0  0  0  0  0  0  0  0  0  0  0  0
   -0.4256   -3.9403   -1.3512 H   0  0  0  0  0  0  0  0  0  0  0  0
    0.0908   -2.2747   -1.7735 H   0  0  0  0  0  0  0  0  0  0  0  0
    1.7855   -3.3008   -0.3506 H   0  0  0  0  0  0  0  0  0  0  0  0
   -0.3819   -3.7620    1.8077 H   0  0  0  0  0  0  0  0  0  0  0  0
    0.4306   -5.0061    0.7963 H   0  0  0  0  0  0  0  0  0  0  0  0
    1.3867   -4.0283    1.9642 H   0  0  0  0  0  0  0  0  0  0  0  0
    1.3932   -0.9067   -0.1582 H   0  0  0  0  0  0  0  0  0  0  0  0
    1.8773   -1.5582    1.4251 H   0  0  0  0  0  0  0  0  0  0  0  0
   -0.5865   -1.4937    2.1614 H   0  0  0  0  0  0  0  0  0  0  0  0
    0.3275    1.0107    4.9989 H   0  0  0  0  0  0  0  0  0  0  0  0
    1.1600   -1.5126    3.5008 H   0  0  0  0  0  0  0  0  0  0  0  0
    2.2569   -3.1751    4.8770 H   0  0  0  0  0  0  0  0  0  0  0  0
    2.8841   -4.1155    7.0689 H   0  0  0  0  0  0  0  0  0  0  0  0
    2.2750   -2.9350    9.1584 H   0  0  0  0  0  0  0  0  0  0  0  0
    1.0241   -0.8034    9.0570 H   0  0  0  0  0  0  0  0  0  0  0  0
    0.3881    0.1622    6.9139 H   0  0  0  0  0  0  0  0  0  0  0  0
  1 22  1  0  0  0  0
  1 23  1  0  0  0  0
  1 24  1  0  0  0  0
  2  1  1  0  0  0  0
  2 25  1  0  0  0  0
  3  2  1  0  0  0  0
  3 26  1  0  0  0  0
  3 27  1  0  0  0  0
  3 28  1  0  0  0  0
  4  2  1  0  0  0  0
  4 29  1  6  0  0  0
  5  4  1  0  0  0  0
  5 30  1  0  0  0  0
  5 31  1  0  0  0  0
  6  5  1  0  0  0  0
  6 32  1  0  0  0  0
  6 33  1  0  0  0  0
  7  6  1  0  0  0  0
  7 34  1  6  0  0  0
  8  7  1  0  0  0  0
  8 35  1  0  0  0  0
  8 36  1  0  0  0  0
  8 37  1  0  0  0  0
  9  7  1  0  0  0  0
  9 38  1  0  0  0  0
  9 39  1  0  0  0  0
 10  9  1  0  0  0  0
 10  4  1  0  0  0  0
 10 40  1  1  0  0  0
 11 10  1  0  0  0  0
 12 11  1  0  0  0  0
 13 12  2  0  0  0  0
 14 12  1  0  0  0  0
 14 41  1  0  0  0  0
 15 14  2  0  0  0  0
 15 42  1  0  0  0  0
 16 15  1  0  0  0  0
 17 16  2  0  0  0  0
 17 43  1  0  0  0  0
 18 17  1  0  0  0  0
 18 44  1  0  0  0  0
 19 18  2  0  0  0  0
 19 45  1  0  0  0  0
 20 19  1  0  0  0  0
 20 46  1  0  0  0  0
 21 20  2  0  0  0  0
 21 16  1  0  0  0  0
 21 47  1  0  0  0  0
M  END
>  <MOL Chiral Flag>
0

>  <energy>
42.602845902660142

$$$$
