>428.sdf
 OpenBabel10062213383D

 52 55  0  0  0  0  0  0  0  0999 V2000
    5.8481   -4.9295   -2.5100 F   0  0  0  0  0  0  0  0  0  0  0  0
    5.1192   -3.8080   -2.2882 C   0  0  0  0  0  0  0  0  0  0  0  0
    5.6785   -2.5528   -2.5303 C   0  0  0  0  0  0  0  0  0  0  0  0
    4.9303   -1.3948   -2.3011 C   0  0  0  0  0  0  0  0  0  0  0  0
    3.6019   -1.4787   -1.8350 C   0  0  0  0  0  0  0  0  0  0  0  0
    3.0520   -2.7554   -1.5881 C   0  0  0  0  0  0  0  0  0  0  0  0
    3.8105   -3.9083   -1.8134 C   0  0  0  0  0  0  0  0  0  0  0  0
    2.8250   -0.2224   -1.5964 C   0  0  0  0  0  0  0  0  0  0  0  0
    3.4162    0.8491   -1.6194 O   0  0  0  0  0  0  0  0  0  0  0  0
    1.3373   -0.2256   -1.2773 C   0  0  1  0  0  0  0  0  0  0  0  0
    1.1272   -0.1876    0.2374 C   0  0  0  0  0  0  0  0  0  0  0  0
   -0.3734   -0.1493    0.5604 C   0  0  0  0  0  0  0  0  0  0  0  0
   -1.0090    1.0532   -0.0389 N   0  3  2  0  0  0  0  0  0  0  0  0
   -2.4469    1.2440    0.3130 C   0  0  0  0  0  0  0  0  0  0  0  0
   -2.7465    0.9835    1.8108 C   0  0  0  0  0  0  0  0  0  0  0  0
   -4.0996    1.2796    2.3609 N   0  0  0  0  0  0  0  0  0  0  0  0
   -5.1012    1.9748    1.6869 C   0  0  0  0  0  0  0  0  0  0  0  0
   -4.9274    2.3909    0.5573 O   0  0  0  0  0  0  0  0  0  0  0  0
   -6.3080    2.2184    2.2982 N   0  0  0  0  0  0  0  0  0  0  0  0
   -6.5706    1.7750    3.5548 C   0  0  0  0  0  0  0  0  0  0  0  0
   -7.8164    2.0280    4.1545 C   0  0  0  0  0  0  0  0  0  0  0  0
   -8.0873    1.5536    5.4414 C   0  0  0  0  0  0  0  0  0  0  0  0
   -7.1205    0.8264    6.1380 C   0  0  0  0  0  0  0  0  0  0  0  0
   -5.8761    0.5786    5.5557 C   0  0  0  0  0  0  0  0  0  0  0  0
   -5.5925    1.0549    4.2595 C   0  0  0  0  0  0  0  0  0  0  0  0
   -4.3514    0.8262    3.6489 C   0  0  0  0  0  0  0  0  0  0  0  0
   -3.4887    0.2100    4.2595 O   0  0  0  0  0  0  0  0  0  0  0  0
   -0.8607    1.0103   -1.5158 C   0  0  0  0  0  0  0  0  0  0  0  0
    0.6219    0.9774   -1.9246 C   0  0  0  0  0  0  0  0  0  0  0  0
    6.6943   -2.4747   -2.8960 H   0  0  0  0  0  0  0  0  0  0  0  0
    5.3869   -0.4323   -2.4957 H   0  0  0  0  0  0  0  0  0  0  0  0
    2.0491   -2.8747   -1.2082 H   0  0  0  0  0  0  0  0  0  0  0  0
    3.3810   -4.8822   -1.6166 H   0  0  0  0  0  0  0  0  0  0  0  0
    0.8578   -1.1441   -1.6741 H   0  0  0  0  0  0  0  0  0  0  0  0
    1.5844   -1.0847    0.7091 H   0  0  0  0  0  0  0  0  0  0  0  0
    1.6139    0.7173    0.6663 H   0  0  0  0  0  0  0  0  0  0  0  0
   -0.4258   -0.1217    1.6683 H   0  0  0  0  0  0  0  0  0  0  0  0
   -0.8736   -1.0772    0.2005 H   0  0  0  0  0  0  0  0  0  0  0  0
   -0.4985    1.8933    0.3272 H   0  0  0  0  0  0  0  0  0  0  0  0
   -3.1001    0.5671   -0.2842 H   0  0  0  0  0  0  0  0  0  0  0  0
   -2.6877    2.2972    0.0556 H   0  0  0  0  0  0  0  0  0  0  0  0
   -2.0056    1.5429    2.4231 H   0  0  0  0  0  0  0  0  0  0  0  0
   -2.5861   -0.1076    1.9480 H   0  0  0  0  0  0  0  0  0  0  0  0
   -7.0400    2.7553    1.7768 H   0  0  0  0  0  0  0  0  0  0  0  0
   -8.5763    2.5883    3.6242 H   0  0  0  0  0  0  0  0  0  0  0  0
   -9.0490    1.7468    5.8984 H   0  0  0  0  0  0  0  0  0  0  0  0
   -7.3343    0.4544    7.1319 H   0  0  0  0  0  0  0  0  0  0  0  0
   -5.1396    0.0130    6.1138 H   0  0  0  0  0  0  0  0  0  0  0  0
   -1.3286    1.9063   -1.9817 H   0  0  0  0  0  0  0  0  0  0  0  0
   -1.3709    0.1077   -1.9263 H   0  0  0  0  0  0  0  0  0  0  0  0
    0.7083    0.9208   -3.0318 H   0  0  0  0  0  0  0  0  0  0  0  0
    1.0914    1.9268   -1.5845 H   0  0  0  0  0  0  0  0  0  0  0  0
  2  1  1  0  0  0  0
  3  2  2  0  0  0  0
  3 30  1  0  0  0  0
  4  3  1  0  0  0  0
  4 31  1  0  0  0  0
  5  4  2  0  0  0  0
  6  5  1  0  0  0  0
  6 32  1  0  0  0  0
  7  6  2  0  0  0  0
  7  2  1  0  0  0  0
  7 33  1  0  0  0  0
  8  5  1  0  0  0  0
  9  8  2  0  0  0  0
 10  8  1  0  0  0  0
 10 34  1  6  0  0  0
 11 10  1  0  0  0  0
 11 35  1  0  0  0  0
 11 36  1  0  0  0  0
 12 11  1  0  0  0  0
 12 37  1  0  0  0  0
 12 38  1  0  0  0  0
 13 12  1  0  0  0  0
 13 39  1  1  0  0  0
 14 13  1  0  0  0  0
 14 40  1  0  0  0  0
 14 41  1  0  0  0  0
 15 14  1  0  0  0  0
 15 42  1  0  0  0  0
 15 43  1  0  0  0  0
 16 15  1  0  0  0  0
 17 16  1  0  0  0  0
 18 17  2  0  0  0  0
 19 17  1  0  0  0  0
 19 44  1  0  0  0  0
 20 19  1  0  0  0  0
 21 20  2  0  0  0  0
 21 45  1  0  0  0  0
 22 21  1  0  0  0  0
 22 46  1  0  0  0  0
 23 22  2  0  0  0  0
 23 47  1  0  0  0  0
 24 23  1  0  0  0  0
 24 48  1  0  0  0  0
 25 24  2  0  0  0  0
 25 20  1  0  0  0  0
 26 25  1  0  0  0  0
 26 16  1  0  0  0  0
 27 26  2  0  0  0  0
 28 13  1  0  0  0  0
 28 49  1  0  0  0  0
 28 50  1  0  0  0  0
 29 28  1  0  0  0  0
 29 10  1  0  0  0  0
 29 51  1  0  0  0  0
 29 52  1  0  0  0  0
M  CHG  1  13   1
M  END
>  <MOL Chiral Flag>
0

>  <energy>
5.4297175291200546

$$$$
