>429.sdf
 OpenBabel10062213393D

 47 49  0  0  0  0  0  0  0  0999 V2000
   -6.6202    0.9933    3.2384 C   0  0  0  0  0  0  0  0  0  0  0  0
   -5.4511    0.9932    2.5006 O   0  0  0  0  0  0  0  0  0  0  0  0
   -4.1965    1.0958    3.0189 C   0  0  0  0  0  0  0  0  0  0  0  0
   -4.0322    1.2793    4.2180 O   0  0  0  0  0  0  0  0  0  0  0  0
   -3.0218    0.9295    2.1262 C   0  0  0  0  0  0  0  0  0  0  0  0
   -3.2104    0.7187    0.7532 C   0  0  0  0  0  0  0  0  0  0  0  0
   -2.1175    0.5073   -0.0869 C   0  0  0  0  0  0  0  0  0  0  0  0
   -0.8027    0.5037    0.4222 C   0  0  0  0  0  0  0  0  0  0  0  0
   -0.6156    0.7249    1.8006 C   0  0  0  0  0  0  0  0  0  0  0  0
   -1.7140    0.9414    2.6416 C   0  0  0  0  0  0  0  0  0  0  0  0
    0.3563    0.1684   -0.5113 C   0  0  2  0  0  0  0  0  0  0  0  0
    1.0693   -0.9415    0.0273 O   0  0  0  0  0  0  0  0  0  0  0  0
    1.9998   -1.5165   -0.8891 C   0  0  0  0  0  0  0  0  0  0  0  0
    2.7223   -2.6738   -0.1508 C   0  0  0  0  0  0  0  0  0  0  0  0
    1.2809   -2.2191   -2.0830 C   0  0  0  0  0  0  0  0  0  0  0  0
    3.0191   -0.4157   -1.3697 C   0  0  1  0  0  0  0  0  0  0  0  0
    2.2217    0.7428   -2.0519 C   0  0  0  0  0  0  0  0  0  0  0  0
    1.2905    1.3454   -0.9645 C   0  0  2  0  0  0  0  0  0  0  0  0
    2.1602    2.0373    0.1564 C   0  0  2  0  0  0  0  0  0  0  0  0
    2.0472    3.5692    0.0787 C   0  0  0  0  0  0  0  0  0  0  0  0
    3.6108    1.5997    0.0407 C   0  0  0  0  0  0  0  0  0  0  0  0
    4.5212    2.4124   -0.0467 O   0  0  0  0  0  0  0  0  0  0  0  0
    3.8838    0.1470   -0.1795 C   0  0  0  0  0  0  0  0  0  0  0  0
   -6.4421    1.0745    4.3317 H   0  0  0  0  0  0  0  0  0  0  0  0
   -7.2565    1.8419    2.9147 H   0  0  0  0  0  0  0  0  0  0  0  0
   -7.1668    0.0466    3.0448 H   0  0  0  0  0  0  0  0  0  0  0  0
   -4.2068    0.6985    0.3298 H   0  0  0  0  0  0  0  0  0  0  0  0
   -2.3023    0.3263   -1.1386 H   0  0  0  0  0  0  0  0  0  0  0  0
    0.3650    0.6888    2.2449 H   0  0  0  0  0  0  0  0  0  0  0  0
   -1.5432    1.0890    3.7008 H   0  0  0  0  0  0  0  0  0  0  0  0
   -0.1532   -0.1425   -1.4433 H   0  0  0  0  0  0  0  0  0  0  0  0
    3.2269   -2.3708    0.7837 H   0  0  0  0  0  0  0  0  0  0  0  0
    3.4787   -3.1511   -0.8101 H   0  0  0  0  0  0  0  0  0  0  0  0
    1.9864   -3.4492    0.1557 H   0  0  0  0  0  0  0  0  0  0  0  0
    2.0240   -2.7321   -2.7303 H   0  0  0  0  0  0  0  0  0  0  0  0
    0.5649   -2.9802   -1.7033 H   0  0  0  0  0  0  0  0  0  0  0  0
    0.7051   -1.5565   -2.7512 H   0  0  0  0  0  0  0  0  0  0  0  0
    3.7079   -0.8718   -2.1149 H   0  0  0  0  0  0  0  0  0  0  0  0
    2.9074    1.5187   -2.4595 H   0  0  0  0  0  0  0  0  0  0  0  0
    1.6386    0.3824   -2.9215 H   0  0  0  0  0  0  0  0  0  0  0  0
    0.6272    2.1075   -1.4322 H   0  0  0  0  0  0  0  0  0  0  0  0
    1.7978    1.7490    1.1500 H   0  0  0  0  0  0  0  0  0  0  0  0
    2.6463    4.0430    0.8863 H   0  0  0  0  0  0  0  0  0  0  0  0
    0.9894    3.8810    0.2091 H   0  0  0  0  0  0  0  0  0  0  0  0
    2.4117    3.9386   -0.9045 H   0  0  0  0  0  0  0  0  0  0  0  0
    3.6451   -0.3299    0.7857 H   0  0  0  0  0  0  0  0  0  0  0  0
    4.9656   -0.0133   -0.3833 H   0  0  0  0  0  0  0  0  0  0  0  0
  1 24  1  0  0  0  0
  1 25  1  0  0  0  0
  1 26  1  0  0  0  0
  2  1  1  0  0  0  0
  3  2  1  0  0  0  0
  4  3  2  0  0  0  0
  5  3  1  0  0  0  0
  6  5  2  0  0  0  0
  6 27  1  0  0  0  0
  7  6  1  0  0  0  0
  7 28  1  0  0  0  0
  8  7  2  0  0  0  0
  9  8  1  0  0  0  0
  9 29  1  0  0  0  0
 10  9  2  0  0  0  0
 10  5  1  0  0  0  0
 10 30  1  0  0  0  0
 11  8  1  0  0  0  0
 11 31  1  6  0  0  0
 12 11  1  0  0  0  0
 13 12  1  0  0  0  0
 14 13  1  0  0  0  0
 14 32  1  0  0  0  0
 14 33  1  0  0  0  0
 14 34  1  0  0  0  0
 15 13  1  0  0  0  0
 15 35  1  0  0  0  0
 15 36  1  0  0  0  0
 15 37  1  0  0  0  0
 16 13  1  0  0  0  0
 16 38  1  6  0  0  0
 17 16  1  0  0  0  0
 17 39  1  0  0  0  0
 17 40  1  0  0  0  0
 18 17  1  0  0  0  0
 18 11  1  0  0  0  0
 18 41  1  6  0  0  0
 19 18  1  0  0  0  0
 19 42  1  1  0  0  0
 20 19  1  0  0  0  0
 20 43  1  0  0  0  0
 20 44  1  0  0  0  0
 20 45  1  0  0  0  0
 21 19  1  0  0  0  0
 22 21  2  0  0  0  0
 23 21  1  0  0  0  0
 23 16  1  0  0  0  0
 23 46  1  0  0  0  0
 23 47  1  0  0  0  0
M  END
>  <MOL Chiral Flag>
0

>  <energy>
84.556973901855812

$$$$
