>431_2.sdf
 OpenBabel10102215193D

 67 69  0  0  0  0  0  0  0  0999 V2000
    3.7914    4.8943   -2.2627 C   0  0  0  0  0  0  0  0  0  0  0  0
    3.9642    4.4028   -3.5419 O   0  0  0  0  0  0  0  0  0  0  0  0
    3.6709    3.1409   -3.9624 C   0  0  0  0  0  0  0  0  0  0  0  0
    4.4144    2.6291   -4.7859 O   0  0  0  0  0  0  0  0  0  0  0  0
    2.4644    2.3697   -3.5070 C   0  0  0  0  0  0  0  0  0  0  0  0
    1.4036    2.9724   -2.8082 C   0  0  0  0  0  0  0  0  0  0  0  0
    0.2763    2.2394   -2.4065 C   0  0  0  0  0  0  0  0  0  0  0  0
   -0.6747    2.9202   -1.7414 O   0  0  0  0  0  0  0  0  0  0  0  0
    0.1931    0.8462   -2.7198 C   0  0  0  0  0  0  0  0  0  0  0  0
   -0.8365   -0.0013   -2.4145 O   0  0  0  0  0  0  0  0  0  0  0  0
   -2.0671    0.0861   -1.7756 C   0  0  2  0  0  0  0  0  0  0  0  0
   -3.0189    0.9490   -2.6075 C   0  0  0  0  0  0  0  0  0  0  0  0
   -3.3324    0.6619   -3.8970 C   0  0  0  0  0  0  0  0  0  0  0  0
   -2.7719   -0.5432   -4.6155 C   0  0  0  0  0  0  0  0  0  0  0  0
   -4.2810    1.5564   -4.6546 C   0  0  0  0  0  0  0  0  0  0  0  0
   -1.8704    0.2533   -0.2453 C   0  0  0  0  0  0  0  0  0  0  0  0
   -2.5628    1.1966    0.5677 C   0  0  0  0  0  0  0  0  0  0  0  0
   -3.4611    2.0513    0.0148 O   0  0  0  0  0  0  0  0  0  0  0  0
   -4.1973    3.0103    0.6817 C   0  0  0  0  0  0  0  0  0  0  0  0
   -2.3273    1.2207    1.9546 C   0  0  0  0  0  0  0  0  0  0  0  0
   -1.4308    0.3483    2.5606 C   0  0  0  0  0  0  0  0  0  0  0  0
   -1.2447    0.4666    3.8962 O   0  0  0  0  0  0  0  0  0  0  0  0
   -0.7305   -0.6002    1.7810 C   0  0  0  0  0  0  0  0  0  0  0  0
    0.2426   -1.5289    2.4308 C   0  0  0  0  0  0  0  0  0  0  0  0
   -0.0973   -2.1446    3.4314 O   0  0  0  0  0  0  0  0  0  0  0  0
    1.6916   -1.5948    1.9615 C   0  0  0  0  0  0  0  0  0  0  0  0
    2.5371   -2.6384    2.7156 C   0  0  0  0  0  0  0  0  0  0  0  0
    2.0693   -4.0503    2.4371 C   0  0  0  0  0  0  0  0  0  0  0  0
    2.1072   -4.5652    1.1278 C   0  0  0  0  0  0  0  0  0  0  0  0
    1.6714   -5.8681    0.8699 C   0  0  0  0  0  0  0  0  0  0  0  0
    1.1978   -6.6676    1.9128 C   0  0  0  0  0  0  0  0  0  0  0  0
    1.1609   -6.1672    3.2172 C   0  0  0  0  0  0  0  0  0  0  0  0
    1.5961   -4.8640    3.4818 C   0  0  0  0  0  0  0  0  0  0  0  0
   -0.9745   -0.6563    0.3819 C   0  0  0  0  0  0  0  0  0  0  0  0
   -0.4081   -1.6207   -0.3823 O   0  0  0  0  0  0  0  0  0  0  0  0
    1.2551    0.2648   -3.4240 C   0  0  0  0  0  0  0  0  0  0  0  0
    2.3669    1.0062   -3.8155 C   0  0  0  0  0  0  0  0  0  0  0  0
    4.7613    5.2939   -1.9023 H   0  0  0  0  0  0  0  0  0  0  0  0
    3.0565    5.7257   -2.2782 H   0  0  0  0  0  0  0  0  0  0  0  0
    3.4768    4.1071   -1.5451 H   0  0  0  0  0  0  0  0  0  0  0  0
    1.4232    4.0259   -2.5806 H   0  0  0  0  0  0  0  0  0  0  0  0
   -1.4776    2.5428   -1.4002 H   0  0  0  0  0  0  0  0  0  0  0  0
   -2.5129   -0.9302   -1.8352 H   0  0  0  0  0  0  0  0  0  0  0  0
   -3.4793    1.8231   -2.1879 H   0  0  0  0  0  0  0  0  0  0  0  0
   -1.6680   -0.4794   -4.6914 H   0  0  0  0  0  0  0  0  0  0  0  0
   -3.1709   -0.6040   -5.6502 H   0  0  0  0  0  0  0  0  0  0  0  0
   -3.0586   -1.4752   -4.0855 H   0  0  0  0  0  0  0  0  0  0  0  0
   -5.1634    0.9668   -4.9807 H   0  0  0  0  0  0  0  0  0  0  0  0
   -4.6418    2.4112   -4.0435 H   0  0  0  0  0  0  0  0  0  0  0  0
   -3.7671    1.9638   -5.5504 H   0  0  0  0  0  0  0  0  0  0  0  0
   -4.8549    2.5343    1.4401 H   0  0  0  0  0  0  0  0  0  0  0  0
   -3.5215    3.7492    1.1628 H   0  0  0  0  0  0  0  0  0  0  0  0
   -4.8370    3.5453   -0.0497 H   0  0  0  0  0  0  0  0  0  0  0  0
   -2.8432    1.9314    2.5859 H   0  0  0  0  0  0  0  0  0  0  0  0
   -0.6019   -0.0433    4.4037 H   0  0  0  0  0  0  0  0  0  0  0  0
    1.7918   -1.7916    0.8820 H   0  0  0  0  0  0  0  0  0  0  0  0
    2.1336   -0.5893    2.1283 H   0  0  0  0  0  0  0  0  0  0  0  0
    2.5027   -2.4105    3.8037 H   0  0  0  0  0  0  0  0  0  0  0  0
    3.5970   -2.5516    2.3921 H   0  0  0  0  0  0  0  0  0  0  0  0
    2.4747   -3.9587    0.3091 H   0  0  0  0  0  0  0  0  0  0  0  0
    1.7014   -6.2584   -0.1396 H   0  0  0  0  0  0  0  0  0  0  0  0
    0.8605   -7.6761    1.7100 H   0  0  0  0  0  0  0  0  0  0  0  0
    0.7940   -6.7901    4.0238 H   0  0  0  0  0  0  0  0  0  0  0  0
    1.5605   -4.4886    4.4972 H   0  0  0  0  0  0  0  0  0  0  0  0
    0.0167   -2.4094   -0.0264 H   0  0  0  0  0  0  0  0  0  0  0  0
    1.2127   -0.7878   -3.6770 H   0  0  0  0  0  0  0  0  0  0  0  0
    3.1582    0.5067   -4.3609 H   0  0  0  0  0  0  0  0  0  0  0  0
  1 38  1  0  0  0  0
  1 39  1  0  0  0  0
  1 40  1  0  0  0  0
  2  1  1  0  0  0  0
  3  2  1  0  0  0  0
  4  3  2  0  0  0  0
  5  3  1  0  0  0  0
  6  5  2  0  0  0  0
  6 41  1  0  0  0  0
  7  6  1  0  0  0  0
  8  7  1  0  0  0  0
  8 42  1  0  0  0  0
  9  7  2  0  0  0  0
 10  9  1  0  0  0  0
 11 10  1  0  0  0  0
 11 43  1  6  0  0  0
 12 11  1  0  0  0  0
 12 44  1  0  0  0  0
 13 12  2  0  0  0  0
 14 13  1  0  0  0  0
 14 45  1  0  0  0  0
 14 46  1  0  0  0  0
 14 47  1  0  0  0  0
 15 13  1  0  0  0  0
 15 48  1  0  0  0  0
 15 49  1  0  0  0  0
 15 50  1  0  0  0  0
 16 11  1  0  0  0  0
 17 16  2  0  0  0  0
 18 17  1  0  0  0  0
 19 18  1  0  0  0  0
 19 51  1  0  0  0  0
 19 52  1  0  0  0  0
 19 53  1  0  0  0  0
 20 17  1  0  0  0  0
 20 54  1  0  0  0  0
 21 20  2  0  0  0  0
 22 21  1  0  0  0  0
 22 55  1  0  0  0  0
 23 21  1  0  0  0  0
 24 23  1  0  0  0  0
 25 24  2  0  0  0  0
 26 24  1  0  0  0  0
 26 56  1  0  0  0  0
 26 57  1  0  0  0  0
 27 26  1  0  0  0  0
 27 58  1  0  0  0  0
 27 59  1  0  0  0  0
 28 27  1  0  0  0  0
 29 28  2  0  0  0  0
 29 60  1  0  0  0  0
 30 29  1  0  0  0  0
 30 61  1  0  0  0  0
 31 30  2  0  0  0  0
 31 62  1  0  0  0  0
 32 31  1  0  0  0  0
 32 63  1  0  0  0  0
 33 32  2  0  0  0  0
 33 28  1  0  0  0  0
 33 64  1  0  0  0  0
 34 23  2  0  0  0  0
 34 16  1  0  0  0  0
 35 34  1  0  0  0  0
 35 65  1  0  0  0  0
 36  9  1  0  0  0  0
 36 66  1  0  0  0  0
 37 36  2  0  0  0  0
 37  5  1  0  0  0  0
 37 67  1  0  0  0  0
M  END
>  <MOL Chiral Flag>
0

>  <energy>
130.43978495383391

$$$$
