>434.sdf
 OpenBabel10062213423D

 38 40  0  0  0  0  0  0  0  0999 V2000
    1.8235   -1.6232   -0.9307 C   0  0  0  0  0  0  0  0  0  0  0  0
    1.8201   -0.5985    0.1785 C   0  0  0  0  0  0  0  0  0  0  0  0
    1.2268   -0.7683    1.3793 C   0  0  0  0  0  0  0  0  0  0  0  0
    0.4073   -1.9261    1.8347 C   0  0  0  0  0  0  0  0  0  0  0  0
   -1.0555   -1.4649    1.7522 C   0  0  0  0  0  0  0  0  0  0  0  0
   -1.6214   -1.6525    0.3326 C   0  0  1  0  0  0  0  0  0  0  0  0
   -2.0640   -3.0831   -0.0196 C   0  0  0  0  0  0  0  0  0  0  0  0
   -2.5250   -0.6915   -0.0501 O   0  0  0  0  0  0  0  0  0  0  0  0
   -1.3356   -0.7752   -0.8651 C   0  0  1  0  0  0  0  0  0  0  0  0
   -0.9887    0.7044   -1.1904 C   0  0  1  0  0  0  0  0  0  0  0  0
   -2.1210    1.4366   -1.5140 O   0  0  0  0  0  0  0  0  0  0  0  0
   -1.9475    2.7345   -1.2811 C   0  0  0  0  0  0  0  0  0  0  0  0
   -2.7779    3.5815   -1.5686 O   0  0  0  0  0  0  0  0  0  0  0  0
   -0.7048    2.9817   -0.6099 C   0  0  0  0  0  0  0  0  0  0  0  0
   -0.2790    4.1843   -0.1984 C   0  0  0  0  0  0  0  0  0  0  0  0
   -0.0204    1.6648   -0.3614 C   0  0  2  0  0  0  0  0  0  0  0  0
    1.4639    1.6573   -0.8906 C   0  0  0  0  0  0  0  0  0  0  0  0
    2.4154    0.7582   -0.0816 C   0  0  0  0  0  0  0  0  0  0  0  0
    1.3207   -1.2061   -1.8268 H   0  0  0  0  0  0  0  0  0  0  0  0
    2.8742   -1.8589   -1.1995 H   0  0  0  0  0  0  0  0  0  0  0  0
    1.3201   -2.5718   -0.6740 H   0  0  0  0  0  0  0  0  0  0  0  0
    1.2303    0.0682    2.0756 H   0  0  0  0  0  0  0  0  0  0  0  0
    0.6956   -2.1060    2.8924 H   0  0  0  0  0  0  0  0  0  0  0  0
    0.5594   -2.8817    1.2986 H   0  0  0  0  0  0  0  0  0  0  0  0
   -1.1747   -0.4228    2.1268 H   0  0  0  0  0  0  0  0  0  0  0  0
   -1.6679   -2.1051    2.4234 H   0  0  0  0  0  0  0  0  0  0  0  0
   -2.7890   -3.4466    0.7388 H   0  0  0  0  0  0  0  0  0  0  0  0
   -2.5651   -3.1435   -1.0093 H   0  0  0  0  0  0  0  0  0  0  0  0
   -1.1877   -3.7624   -0.0312 H   0  0  0  0  0  0  0  0  0  0  0  0
   -1.6858   -1.2404   -1.8131 H   0  0  0  0  0  0  0  0  0  0  0  0
   -0.4916    0.5999   -2.1800 H   0  0  0  0  0  0  0  0  0  0  0  0
    0.6550    4.2839    0.3442 H   0  0  0  0  0  0  0  0  0  0  0  0
   -0.8661    5.0754   -0.3974 H   0  0  0  0  0  0  0  0  0  0  0  0
   -0.0898    1.5607    0.7415 H   0  0  0  0  0  0  0  0  0  0  0  0
    1.4978    1.4203   -1.9742 H   0  0  0  0  0  0  0  0  0  0  0  0
    1.9133    2.6691   -0.7984 H   0  0  0  0  0  0  0  0  0  0  0  0
    2.5625    1.2894    0.8866 H   0  0  0  0  0  0  0  0  0  0  0  0
    3.4279    0.6884   -0.5330 H   0  0  0  0  0  0  0  0  0  0  0  0
  1 19  1  0  0  0  0
  1 20  1  0  0  0  0
  1 21  1  0  0  0  0
  2  1  1  0  0  0  0
  3  2  2  0  0  0  0
  3 22  1  0  0  0  0
  4  3  1  0  0  0  0
  4 23  1  0  0  0  0
  4 24  1  0  0  0  0
  5  4  1  0  0  0  0
  5 25  1  0  0  0  0
  5 26  1  0  0  0  0
  6  5  1  0  0  0  0
  6  7  1  6  0  0  0
  7 27  1  0  0  0  0
  7 28  1  0  0  0  0
  7 29  1  0  0  0  0
  8  6  1  0  0  0  0
  9  8  1  0  0  0  0
  9  6  1  0  0  0  0
  9 30  1  6  0  0  0
 10  9  1  0  0  0  0
 10 31  1  6  0  0  0
 11 10  1  0  0  0  0
 12 11  1  0  0  0  0
 13 12  2  0  0  0  0
 14 12  1  0  0  0  0
 15 14  2  0  0  0  0
 15 32  1  0  0  0  0
 15 33  1  0  0  0  0
 16 14  1  0  0  0  0
 16 10  1  0  0  0  0
 16 34  1  1  0  0  0
 17 16  1  0  0  0  0
 17 35  1  0  0  0  0
 17 36  1  0  0  0  0
 18 17  1  0  0  0  0
 18  2  1  0  0  0  0
 18 37  1  0  0  0  0
 18 38  1  0  0  0  0
M  END
>  <MOL Chiral Flag>
0

>  <energy>
81.287465834767985

$$$$
