>436.sdf
 OpenBabel10062213453D

 48 48  0  0  0  0  0  0  0  0999 V2000
   -8.8310    2.4086   -0.9511 C   0  0  0  0  0  0  0  0  0  0  0  0
   -7.3923    2.8700   -0.7394 C   0  0  0  0  0  0  0  0  0  0  0  0
   -6.8192    2.2888    0.5602 C   0  0  0  0  0  0  0  0  0  0  0  0
   -5.3848    2.7527    0.8521 C   0  0  0  0  0  0  0  0  0  0  0  0
   -4.3639    2.2410   -0.1757 C   0  0  0  0  0  0  0  0  0  0  0  0
   -2.9446    2.6430    0.2319 C   0  0  0  0  0  0  0  0  0  0  0  0
   -1.9014    2.0561   -0.7266 C   0  0  0  0  0  0  0  0  0  0  0  0
   -0.4945    2.4231   -0.2648 C   0  0  0  0  0  0  0  0  0  0  0  0
    0.4716    1.8335   -1.1210 O   0  0  0  0  0  0  0  0  0  0  0  0
    1.1933    0.8094   -0.4482 C   0  0  2  0  0  0  0  0  0  0  0  0
    1.8284    1.3225    0.7031 O   0  0  0  0  0  0  0  0  0  0  0  0
    2.9672    2.0155    0.2262 C   0  0  1  0  0  0  0  0  0  0  0  0
    4.0911    2.0187    1.2845 C   0  0  2  0  0  0  0  0  0  0  0  0
    5.1576    2.8117    0.8278 O   0  0  0  0  0  0  0  0  0  0  0  0
    4.6076    0.6379    1.7100 C   0  0  0  0  0  0  0  0  0  0  0  0
    5.2865    0.0121    0.6568 O   0  0  0  0  0  0  0  0  0  0  0  0
    3.3188    1.4573   -1.1753 C   0  0  2  0  0  0  0  0  0  0  0  0
    3.0166    2.4363   -2.1386 O   0  0  0  0  0  0  0  0  0  0  0  0
    2.3423    0.3020   -1.3026 C   0  0  1  0  0  0  0  0  0  0  0  0
    2.8939   -0.8351   -0.6887 O   0  0  0  0  0  0  0  0  0  0  0  0
   -9.4716    2.7380   -0.1053 H   0  0  0  0  0  0  0  0  0  0  0  0
   -8.8716    1.3010   -1.0293 H   0  0  0  0  0  0  0  0  0  0  0  0
   -9.2285    2.8466   -1.8905 H   0  0  0  0  0  0  0  0  0  0  0  0
   -6.7922    2.5399   -1.6123 H   0  0  0  0  0  0  0  0  0  0  0  0
   -7.3735    3.9804   -0.6883 H   0  0  0  0  0  0  0  0  0  0  0  0
   -7.4602    2.6220    1.4058 H   0  0  0  0  0  0  0  0  0  0  0  0
   -6.8450    1.1772    0.5240 H   0  0  0  0  0  0  0  0  0  0  0  0
   -5.1056    2.3474    1.8499 H   0  0  0  0  0  0  0  0  0  0  0  0
   -5.3507    3.8629    0.9084 H   0  0  0  0  0  0  0  0  0  0  0  0
   -4.4264    1.1315   -0.2186 H   0  0  0  0  0  0  0  0  0  0  0  0
   -4.5781    2.6549   -1.1834 H   0  0  0  0  0  0  0  0  0  0  0  0
   -2.7440    2.2528    1.2547 H   0  0  0  0  0  0  0  0  0  0  0  0
   -2.8600    3.7523    0.2513 H   0  0  0  0  0  0  0  0  0  0  0  0
   -2.0654    2.4355   -1.7589 H   0  0  0  0  0  0  0  0  0  0  0  0
   -1.9958    0.9482   -0.7310 H   0  0  0  0  0  0  0  0  0  0  0  0
   -0.3603    3.5258   -0.2903 H   0  0  0  0  0  0  0  0  0  0  0  0
   -0.3937    2.1241    0.8057 H   0  0  0  0  0  0  0  0  0  0  0  0
    0.5066   -0.0348   -0.2107 H   0  0  0  0  0  0  0  0  0  0  0  0
    2.6753    3.0855    0.1111 H   0  0  0  0  0  0  0  0  0  0  0  0
    3.6328    2.4881    2.1899 H   0  0  0  0  0  0  0  0  0  0  0  0
    5.5162    3.3028    1.6130 H   0  0  0  0  0  0  0  0  0  0  0  0
    5.3170    0.7708    2.5563 H   0  0  0  0  0  0  0  0  0  0  0  0
    3.7483    0.0224    2.0628 H   0  0  0  0  0  0  0  0  0  0  0  0
    5.1990   -0.9652    0.8004 H   0  0  0  0  0  0  0  0  0  0  0  0
    4.3814    1.1538   -1.3068 H   0  0  0  0  0  0  0  0  0  0  0  0
    3.3723    2.1026   -3.0042 H   0  0  0  0  0  0  0  0  0  0  0  0
    2.0910    0.0525   -2.3600 H   0  0  0  0  0  0  0  0  0  0  0  0
    2.2900   -1.5947   -0.9029 H   0  0  0  0  0  0  0  0  0  0  0  0
  1 21  1  0  0  0  0
  1 22  1  0  0  0  0
  1 23  1  0  0  0  0
  2  1  1  0  0  0  0
  2 24  1  0  0  0  0
  2 25  1  0  0  0  0
  3  2  1  0  0  0  0
  3 26  1  0  0  0  0
  3 27  1  0  0  0  0
  4  3  1  0  0  0  0
  4 28  1  0  0  0  0
  4 29  1  0  0  0  0
  5  4  1  0  0  0  0
  5 30  1  0  0  0  0
  5 31  1  0  0  0  0
  6  5  1  0  0  0  0
  6 32  1  0  0  0  0
  6 33  1  0  0  0  0
  7  6  1  0  0  0  0
  7 34  1  0  0  0  0
  7 35  1  0  0  0  0
  8  7  1  0  0  0  0
  8 36  1  0  0  0  0
  8 37  1  0  0  0  0
  9  8  1  0  0  0  0
 10  9  1  0  0  0  0
 10 38  1  1  0  0  0
 11 10  1  0  0  0  0
 12 11  1  0  0  0  0
 12 39  1  6  0  0  0
 13 12  1  0  0  0  0
 13 40  1  1  0  0  0
 14 13  1  0  0  0  0
 14 41  1  0  0  0  0
 15 13  1  0  0  0  0
 15 42  1  0  0  0  0
 15 43  1  0  0  0  0
 16 15  1  0  0  0  0
 16 44  1  0  0  0  0
 17 12  1  0  0  0  0
 17 45  1  6  0  0  0
 18 17  1  0  0  0  0
 18 46  1  0  0  0  0
 19 17  1  0  0  0  0
 19 10  1  0  0  0  0
 19 47  1  6  0  0  0
 20 19  1  0  0  0  0
 20 48  1  0  0  0  0
M  END
>  <MOL Chiral Flag>
0

>  <energy>
110.14134621103565

$$$$
