>437.sdf
 OpenBabel10062213473D

 80 84  0  0  0  0  0  0  0  0999 V2000
    0.6031    5.3056    0.3482 C   0  0  0  0  0  0  0  0  0  0  0  0
   -0.1480    4.6227    1.4641 C   0  0  0  0  0  0  0  0  0  0  0  0
    0.3549    4.6440    2.7133 C   0  0  0  0  0  0  0  0  0  0  0  0
   -1.4933    3.9650    1.1694 C   0  0  2  0  0  0  0  0  0  0  0  0
   -2.6568    4.6596    1.9381 C   0  0  0  0  0  0  0  0  0  0  0  0
   -3.3133    3.5589    2.7835 C   0  0  0  0  0  0  0  0  0  0  0  0
   -3.1174    2.3145    1.9122 C   0  0  2  0  0  0  0  0  0  0  0  0
   -3.3435    0.9780    2.6522 C   0  0  0  0  0  0  0  0  0  0  0  0
   -2.8518   -0.2010    1.7743 C   0  0  0  0  0  0  0  0  0  0  0  0
   -1.3257   -0.1068    1.3692 C   0  0  2  0  0  0  0  0  0  0  0  0
   -0.5066   -0.2078    2.7182 C   0  0  0  0  0  0  0  0  0  0  0  0
   -1.0920    1.3024    0.6732 C   0  0  2  0  0  0  0  0  0  0  0  0
    0.3739    1.4643    0.2587 C   0  0  0  0  0  0  0  0  0  0  0  0
    0.8171    0.3514   -0.7063 C   0  0  0  0  0  0  0  0  0  0  0  0
    0.6455   -1.0762   -0.0950 C   0  0  2  0  0  0  0  0  0  0  0  0
    1.3786   -2.2742   -0.9022 C   0  0  1  0  0  0  0  0  0  0  0  0
    0.8439   -2.3989   -2.3665 C   0  0  0  0  0  0  0  0  0  0  0  0
    2.8925   -1.8763   -1.0248 C   0  0  0  0  0  0  0  0  0  0  0  0
    3.8684   -2.8817   -1.6443 C   0  0  0  0  0  0  0  0  0  0  0  0
    4.2617   -3.9604   -0.6848 C   0  0  0  0  0  0  0  0  0  0  0  0
    5.4362   -4.0173   -0.3455 O   0  0  0  0  0  0  0  0  0  0  0  0
    3.3902   -4.8560   -0.1503 N   0  0  0  0  0  0  0  0  0  0  0  0
    1.9485   -4.9702   -0.4178 C   0  0  0  0  0  0  0  0  0  0  0  0
    1.7003   -5.4950   -1.8497 C   0  0  0  0  0  0  0  0  0  0  0  0
    1.4620   -6.1326    0.5083 C   0  0  0  0  0  0  0  0  0  0  0  0
    1.1803   -3.6103   -0.0365 C   0  0  2  0  0  0  0  0  0  0  0  0
   -0.3560   -3.8297    0.1973 C   0  0  0  0  0  0  0  0  0  0  0  0
   -0.9716   -2.6823    1.0100 C   0  0  0  0  0  0  0  0  0  0  0  0
   -0.8769   -1.2891    0.3360 C   0  0  1  0  0  0  0  0  0  0  0  0
   -1.8556   -1.3047   -0.8908 C   0  0  0  0  0  0  0  0  0  0  0  0
   -1.6135    2.4679    1.5780 C   0  0  1  0  0  0  0  0  0  0  0  0
   -4.0893    2.3964    0.7219 C   0  0  0  0  0  0  0  0  0  0  0  0
   -5.4170    2.3504    0.9486 O   0  0  0  0  0  0  0  0  0  0  0  0
   -3.6900    2.5275   -0.4237 O   0  0  0  0  0  0  0  0  0  0  0  0
    1.5534    5.7605    0.7023 H   0  0  0  0  0  0  0  0  0  0  0  0
   -0.0296    6.1154   -0.0712 H   0  0  0  0  0  0  0  0  0  0  0  0
    0.8467    4.5945   -0.4626 H   0  0  0  0  0  0  0  0  0  0  0  0
   -0.1763    4.1881    3.5420 H   0  0  0  0  0  0  0  0  0  0  0  0
    1.3030    5.1284    2.9250 H   0  0  0  0  0  0  0  0  0  0  0  0
   -1.7217    4.0634    0.0849 H   0  0  0  0  0  0  0  0  0  0  0  0
   -3.4019    4.9854    1.1779 H   0  0  0  0  0  0  0  0  0  0  0  0
   -2.3870    5.5597    2.5318 H   0  0  0  0  0  0  0  0  0  0  0  0
   -2.7121    3.4417    3.7147 H   0  0  0  0  0  0  0  0  0  0  0  0
   -4.3583    3.7803    3.0903 H   0  0  0  0  0  0  0  0  0  0  0  0
   -2.8116    0.9772    3.6229 H   0  0  0  0  0  0  0  0  0  0  0  0
   -4.4199    0.8501    2.8996 H   0  0  0  0  0  0  0  0  0  0  0  0
   -3.0523   -1.1513    2.3115 H   0  0  0  0  0  0  0  0  0  0  0  0
   -3.5024   -0.1779    0.8833 H   0  0  0  0  0  0  0  0  0  0  0  0
    0.5873   -0.1595    2.5986 H   0  0  0  0  0  0  0  0  0  0  0  0
   -0.7509   -1.1284    3.2798 H   0  0  0  0  0  0  0  0  0  0  0  0
   -0.7224    0.5796    3.4540 H   0  0  0  0  0  0  0  0  0  0  0  0
   -1.6698    1.3522   -0.2618 H   0  0  0  0  0  0  0  0  0  0  0  0
    0.5008    2.4260   -0.2690 H   0  0  0  0  0  0  0  0  0  0  0  0
    1.0340    1.4826    1.1500 H   0  0  0  0  0  0  0  0  0  0  0  0
    0.2517    0.4385   -1.6556 H   0  0  0  0  0  0  0  0  0  0  0  0
    1.8724    0.5875   -0.9269 H   0  0  0  0  0  0  0  0  0  0  0  0
    1.2305   -1.0571    0.8409 H   0  0  0  0  0  0  0  0  0  0  0  0
    1.4822   -2.9855   -3.0306 H   0  0  0  0  0  0  0  0  0  0  0  0
   -0.1150   -2.9075   -2.4762 H   0  0  0  0  0  0  0  0  0  0  0  0
    0.8022   -1.4086   -2.8611 H   0  0  0  0  0  0  0  0  0  0  0  0
    3.3044   -1.5720   -0.0369 H   0  0  0  0  0  0  0  0  0  0  0  0
    2.9607   -1.0017   -1.7014 H   0  0  0  0  0  0  0  0  0  0  0  0
    4.7984   -2.3125   -1.8741 H   0  0  0  0  0  0  0  0  0  0  0  0
    3.5463   -3.2773   -2.6189 H   0  0  0  0  0  0  0  0  0  0  0  0
    3.8027   -5.5176    0.5291 H   0  0  0  0  0  0  0  0  0  0  0  0
    0.6122   -5.6026   -2.0453 H   0  0  0  0  0  0  0  0  0  0  0  0
    2.1728   -6.4936   -1.9765 H   0  0  0  0  0  0  0  0  0  0  0  0
    2.1490   -4.8930   -2.6407 H   0  0  0  0  0  0  0  0  0  0  0  0
    0.4209   -6.4534    0.3015 H   0  0  0  0  0  0  0  0  0  0  0  0
    2.0721   -7.0485    0.3446 H   0  0  0  0  0  0  0  0  0  0  0  0
    1.5652   -5.8514    1.5794 H   0  0  0  0  0  0  0  0  0  0  0  0
    1.5897   -3.3880    0.9757 H   0  0  0  0  0  0  0  0  0  0  0  0
   -0.8973   -4.0295   -0.7457 H   0  0  0  0  0  0  0  0  0  0  0  0
   -0.5504   -4.6944    0.8535 H   0  0  0  0  0  0  0  0  0  0  0  0
   -2.0290   -2.9249    1.2505 H   0  0  0  0  0  0  0  0  0  0  0  0
   -0.4036   -2.6987    1.9574 H   0  0  0  0  0  0  0  0  0  0  0  0
   -2.8970   -1.5046   -0.5850 H   0  0  0  0  0  0  0  0  0  0  0  0
   -1.8427   -0.3790   -1.4913 H   0  0  0  0  0  0  0  0  0  0  0  0
   -1.7077   -2.1218   -1.5873 H   0  0  0  0  0  0  0  0  0  0  0  0
   -1.0656    2.4028    2.5332 H   0  0  0  0  0  0  0  0  0  0  0  0
  1 35  1  0  0  0  0
  1 36  1  0  0  0  0
  1 37  1  0  0  0  0
  2  1  1  0  0  0  0
  3  2  2  0  0  0  0
  3 38  1  0  0  0  0
  3 39  1  0  0  0  0
  4  2  1  0  0  0  0
  4 40  1  6  0  0  0
  5  4  1  0  0  0  0
  5 41  1  0  0  0  0
  5 42  1  0  0  0  0
  6  5  1  0  0  0  0
  6 43  1  0  0  0  0
  6 44  1  0  0  0  0
  7  6  1  0  0  0  0
  7 32  1  6  0  0  0
  8  7  1  0  0  0  0
  8 45  1  0  0  0  0
  8 46  1  0  0  0  0
  9  8  1  0  0  0  0
  9 47  1  0  0  0  0
  9 48  1  0  0  0  0
 10  9  1  0  0  0  0
 10 11  1  1  0  0  0
 11 49  1  0  0  0  0
 11 50  1  0  0  0  0
 11 51  1  0  0  0  0
 12 10  1  0  0  0  0
 12 52  1  6  0  0  0
 13 12  1  0  0  0  0
 13 53  1  0  0  0  0
 13 54  1  0  0  0  0
 14 13  1  0  0  0  0
 14 55  1  0  0  0  0
 14 56  1  0  0  0  0
 15 14  1  0  0  0  0
 15 57  1  1  0  0  0
 16 15  1  0  0  0  0
 16 17  1  6  0  0  0
 17 58  1  0  0  0  0
 17 59  1  0  0  0  0
 17 60  1  0  0  0  0
 18 16  1  0  0  0  0
 18 61  1  0  0  0  0
 18 62  1  0  0  0  0
 19 18  1  0  0  0  0
 19 63  1  0  0  0  0
 19 64  1  0  0  0  0
 20 19  1  0  0  0  0
 21 20  2  0  0  0  0
 22 20  1  0  0  0  0
 22 65  1  0  0  0  0
 23 22  1  0  0  0  0
 24 23  1  0  0  0  0
 24 66  1  0  0  0  0
 24 67  1  0  0  0  0
 24 68  1  0  0  0  0
 25 23  1  0  0  0  0
 25 69  1  0  0  0  0
 25 70  1  0  0  0  0
 25 71  1  0  0  0  0
 26 23  1  0  0  0  0
 26 16  1  0  0  0  0
 26 72  1  1  0  0  0
 27 26  1  0  0  0  0
 27 73  1  0  0  0  0
 27 74  1  0  0  0  0
 28 27  1  0  0  0  0
 28 75  1  0  0  0  0
 28 76  1  0  0  0  0
 29 28  1  0  0  0  0
 29 10  1  0  0  0  0
 29 15  1  0  0  0  0
 29 30  1  6  0  0  0
 30 77  1  0  0  0  0
 30 78  1  0  0  0  0
 30 79  1  0  0  0  0
 31 12  1  0  0  0  0
 31  4  1  0  0  0  0
 31  7  1  0  0  0  0
 31 80  1  1  0  0  0
 33 32  1  0  0  0  0
 34 32  2  0  0  0  0
M  END
>  <MOL Chiral Flag>
0

>  <energy>
163.96542221632816

$$$$
