>44.sdf
 OpenBabel10052218073D

 42 45  0  0  0  0  0  0  0  0999 V2000
    3.0297   -3.3751   -1.1195 C   0  0  0  0  0  0  0  0  0  0  0  0
    3.4217   -1.9057   -1.2510 C   0  0  0  0  0  0  0  0  0  0  0  0
    2.3198   -1.0428   -0.8136 N   0  0  0  0  0  0  0  0  0  0  0  0
    1.1090   -0.9585   -1.4174 C   0  0  0  0  0  0  0  0  0  0  0  0
    0.2969   -0.0638   -0.7289 C   0  0  0  0  0  0  0  0  0  0  0  0
   -1.1400    0.2780   -1.0765 C   0  0  2  0  0  0  0  0  0  0  0  0
   -1.3282    1.7076   -1.4007 N   0  0  0  0  0  0  0  0  0  0  0  0
   -2.4897    2.2627   -1.7969 C   0  0  0  0  0  0  0  0  0  0  0  0
   -2.2755    3.6013   -2.0241 C   0  0  0  0  0  0  0  0  0  0  0  0
   -0.9802    3.8857   -1.7835 N   0  0  0  0  0  0  0  0  0  0  0  0
   -0.4245    2.7147   -1.4103 C   0  0  0  0  0  0  0  0  0  0  0  0
   -2.0523   -0.2117    0.0506 C   0  0  0  0  0  0  0  0  0  0  0  0
   -2.6984    0.6943    0.9206 C   0  0  0  0  0  0  0  0  0  0  0  0
   -3.5200    0.2297    1.9501 C   0  0  0  0  0  0  0  0  0  0  0  0
   -3.7201   -1.1392    2.1268 C   0  0  0  0  0  0  0  0  0  0  0  0
   -4.7573   -1.7165    3.4182 Cl  0  0  0  0  0  0  0  0  0  0  0  0
   -3.0955   -2.0503    1.2753 C   0  0  0  0  0  0  0  0  0  0  0  0
   -2.2627   -1.6020    0.2447 C   0  0  0  0  0  0  0  0  0  0  0  0
   -1.5252   -2.8134   -0.8009 Cl  0  0  0  0  0  0  0  0  0  0  0  0
    1.0623    0.4104    0.3273 C   0  0  0  0  0  0  0  0  0  0  0  0
    2.2894   -0.2000    0.2429 C   0  0  0  0  0  0  0  0  0  0  0  0
    3.3011    0.0682    1.1724 C   0  0  0  0  0  0  0  0  0  0  0  0
    3.0318    0.9891    2.2000 C   0  0  0  0  0  0  0  0  0  0  0  0
    1.7695    1.6166    2.2843 C   0  0  0  0  0  0  0  0  0  0  0  0
    1.4194    2.8682    3.6827 Br  0  0  0  0  0  0  0  0  0  0  0  0
    0.7691    1.3247    1.3405 C   0  0  0  0  0  0  0  0  0  0  0  0
    2.1421   -3.6041   -1.7453 H   0  0  0  0  0  0  0  0  0  0  0  0
    2.7937   -3.6066   -0.0583 H   0  0  0  0  0  0  0  0  0  0  0  0
    3.8726   -4.0196   -1.4457 H   0  0  0  0  0  0  0  0  0  0  0  0
    3.6800   -1.6710   -2.3057 H   0  0  0  0  0  0  0  0  0  0  0  0
    4.3276   -1.7422   -0.6350 H   0  0  0  0  0  0  0  0  0  0  0  0
    0.8265   -1.5210   -2.2982 H   0  0  0  0  0  0  0  0  0  0  0  0
   -1.4296   -0.2748   -1.9975 H   0  0  0  0  0  0  0  0  0  0  0  0
   -3.4258    1.7302   -1.9091 H   0  0  0  0  0  0  0  0  0  0  0  0
   -3.0114    4.3247   -2.3481 H   0  0  0  0  0  0  0  0  0  0  0  0
    0.6221    2.6119   -1.1623 H   0  0  0  0  0  0  0  0  0  0  0  0
   -2.5601    1.7611    0.8197 H   0  0  0  0  0  0  0  0  0  0  0  0
   -4.0013    0.9373    2.6129 H   0  0  0  0  0  0  0  0  0  0  0  0
   -3.2581   -3.1122    1.4124 H   0  0  0  0  0  0  0  0  0  0  0  0
    4.2690   -0.4078    1.1181 H   0  0  0  0  0  0  0  0  0  0  0  0
    3.7984    1.2165    2.9293 H   0  0  0  0  0  0  0  0  0  0  0  0
   -0.1958    1.8054    1.3996 H   0  0  0  0  0  0  0  0  0  0  0  0
  1 27  1  0  0  0  0
  1 28  1  0  0  0  0
  1 29  1  0  0  0  0
  2  1  1  0  0  0  0
  2 30  1  0  0  0  0
  2 31  1  0  0  0  0
  3  2  1  0  0  0  0
  4  3  1  0  0  0  0
  4 32  1  0  0  0  0
  5  4  2  0  0  0  0
  6  5  1  0  0  0  0
  6 33  1  6  0  0  0
  7  6  1  0  0  0  0
  8  7  1  0  0  0  0
  8 34  1  0  0  0  0
  9  8  2  0  0  0  0
  9 35  1  0  0  0  0
 10  9  1  0  0  0  0
 11 10  2  0  0  0  0
 11  7  1  0  0  0  0
 11 36  1  0  0  0  0
 12  6  1  0  0  0  0
 13 12  2  0  0  0  0
 13 37  1  0  0  0  0
 14 13  1  0  0  0  0
 14 38  1  0  0  0  0
 15 14  2  0  0  0  0
 16 15  1  0  0  0  0
 17 15  1  0  0  0  0
 17 39  1  0  0  0  0
 18 17  2  0  0  0  0
 18 12  1  0  0  0  0
 19 18  1  0  0  0  0
 20  5  1  0  0  0  0
 21 20  2  0  0  0  0
 21  3  1  0  0  0  0
 22 21  1  0  0  0  0
 22 40  1  0  0  0  0
 23 22  2  0  0  0  0
 23 41  1  0  0  0  0
 24 23  1  0  0  0  0
 25 24  1  0  0  0  0
 26 24  2  0  0  0  0
 26 20  1  0  0  0  0
 26 42  1  0  0  0  0
M  END
>  <MOL Chiral Flag>
0

>  <energy>
59.073770012426543

$$$$
