>440.sdf
 OpenBabel10062213483D

 73 78  0  0  0  0  0  0  0  0999 V2000
    1.9039    1.1804    2.0279 O   0  0  0  0  0  0  0  0  0  0  0  0
    1.6519    1.9393    1.0996 C   0  0  0  0  0  0  0  0  0  0  0  0
    2.5980    1.9733   -0.0464 C   0  0  0  0  0  0  0  0  0  0  0  0
    3.1257    0.8138   -0.6945 C   0  0  0  0  0  0  0  0  0  0  0  0
    4.2525    1.3600   -1.8039 S   0  0  0  0  0  0  0  0  0  0  0  0
    4.1382    2.9856   -1.5289 C   0  0  0  0  0  0  0  0  0  0  0  0
    3.1911    3.1892   -0.5286 C   0  0  0  0  0  0  0  0  0  0  0  0
    2.9580    4.4900   -0.0564 C   0  0  0  0  0  0  0  0  0  0  0  0
    3.6692    5.5617   -0.6223 C   0  0  0  0  0  0  0  0  0  0  0  0
    4.6109    5.3338   -1.6447 C   0  0  0  0  0  0  0  0  0  0  0  0
    4.8545    4.0307   -2.1049 C   0  0  0  0  0  0  0  0  0  0  0  0
    2.8136   -0.6292   -0.4347 C   0  0  0  0  0  0  0  0  0  0  0  0
    1.6278   -1.0161    0.2192 C   0  0  0  0  0  0  0  0  0  0  0  0
    1.4142   -2.3400    0.5807 C   0  0  0  0  0  0  0  0  0  0  0  0
    2.3534   -3.3171    0.2729 C   0  0  0  0  0  0  0  0  0  0  0  0
    2.1646   -4.5594    0.7605 O   0  0  0  0  0  0  0  0  0  0  0  0
    2.0039   -5.7280    0.0555 C   0  0  0  0  0  0  0  0  0  0  0  0
    3.1791   -6.6949    0.2662 C   0  0  0  0  0  0  0  0  0  0  0  0
    3.6565   -6.9875    1.6844 C   0  0  0  0  0  0  0  0  0  0  0  0
    3.1537   -6.3429    2.8395 C   0  0  0  0  0  0  0  0  0  0  0  0
    3.6937   -6.6272    4.0987 C   0  0  0  0  0  0  0  0  0  0  0  0
    4.7176   -7.5655    4.2303 C   0  0  0  0  0  0  0  0  0  0  0  0
    5.2058   -8.2257    3.1031 C   0  0  0  0  0  0  0  0  0  0  0  0
    4.6844   -7.9356    1.8393 C   0  0  0  0  0  0  0  0  0  0  0  0
    3.5023   -2.9754   -0.4536 C   0  0  0  0  0  0  0  0  0  0  0  0
    3.7327   -1.6353   -0.8067 C   0  0  0  0  0  0  0  0  0  0  0  0
    0.3840    2.7277    1.1429 C   0  0  0  0  0  0  0  0  0  0  0  0
   -0.0665    3.4704    0.0321 C   0  0  0  0  0  0  0  0  0  0  0  0
   -1.2805    4.1616    0.0874 C   0  0  0  0  0  0  0  0  0  0  0  0
   -2.0730    4.1149    1.2445 C   0  0  0  0  0  0  0  0  0  0  0  0
   -3.4011    4.8395    1.2998 C   0  0  0  0  0  0  0  0  0  0  0  0
   -4.3609    4.3426    0.2832 N   0  3  0  0  0  0  0  0  0  0  0  0
   -4.6721    2.9046    0.4928 C   0  0  0  0  0  0  0  0  0  0  0  0
   -5.6559    2.3936   -0.5706 C   0  0  0  0  0  0  0  0  0  0  0  0
   -6.9438    3.2159   -0.5229 C   0  0  0  0  0  0  0  0  0  0  0  0
   -6.6116    4.6955   -0.7221 C   0  0  0  0  0  0  0  0  0  0  0  0
   -5.6031    5.1510    0.3439 C   0  0  0  0  0  0  0  0  0  0  0  0
   -1.6296    3.3765    2.3506 C   0  0  0  0  0  0  0  0  0  0  0  0
   -0.4171    2.6887    2.2990 C   0  0  0  0  0  0  0  0  0  0  0  0
    2.2552    4.6822    0.7415 H   0  0  0  0  0  0  0  0  0  0  0  0
    3.4985    6.5677   -0.2614 H   0  0  0  0  0  0  0  0  0  0  0  0
    5.1593    6.1667   -2.0654 H   0  0  0  0  0  0  0  0  0  0  0  0
    5.5923    3.8440   -2.8739 H   0  0  0  0  0  0  0  0  0  0  0  0
    0.8617   -0.3077    0.4743 H   0  0  0  0  0  0  0  0  0  0  0  0
    0.5178   -2.6061    1.1266 H   0  0  0  0  0  0  0  0  0  0  0  0
    1.8757   -5.5337   -1.0325 H   0  0  0  0  0  0  0  0  0  0  0  0
    1.0723   -6.2058    0.4278 H   0  0  0  0  0  0  0  0  0  0  0  0
    2.8870   -7.6545   -0.2147 H   0  0  0  0  0  0  0  0  0  0  0  0
    4.0539   -6.2908   -0.2858 H   0  0  0  0  0  0  0  0  0  0  0  0
    2.3653   -5.6124    2.7916 H   0  0  0  0  0  0  0  0  0  0  0  0
    3.3192   -6.1136    4.9753 H   0  0  0  0  0  0  0  0  0  0  0  0
    5.1326   -7.7810    5.2065 H   0  0  0  0  0  0  0  0  0  0  0  0
    5.9961   -8.9579    3.2064 H   0  0  0  0  0  0  0  0  0  0  0  0
    5.0832   -8.4499    0.9734 H   0  0  0  0  0  0  0  0  0  0  0  0
    4.2414   -3.7291   -0.6937 H   0  0  0  0  0  0  0  0  0  0  0  0
    4.6517   -1.3813   -1.3191 H   0  0  0  0  0  0  0  0  0  0  0  0
    0.5073    3.5068   -0.8827 H   0  0  0  0  0  0  0  0  0  0  0  0
   -1.6074    4.7252   -0.7773 H   0  0  0  0  0  0  0  0  0  0  0  0
   -3.1986    5.9218    1.1370 H   0  0  0  0  0  0  0  0  0  0  0  0
   -3.8502    4.7385    2.3148 H   0  0  0  0  0  0  0  0  0  0  0  0
   -3.9384    4.4665   -0.6675 H   0  0  0  0  0  0  0  0  0  0  0  0
   -5.1088    2.7465    1.5056 H   0  0  0  0  0  0  0  0  0  0  0  0
   -3.7503    2.2876    0.4171 H   0  0  0  0  0  0  0  0  0  0  0  0
   -5.8858    1.3213   -0.3918 H   0  0  0  0  0  0  0  0  0  0  0  0
   -5.1910    2.4880   -1.5769 H   0  0  0  0  0  0  0  0  0  0  0  0
   -7.4363    3.0752    0.4648 H   0  0  0  0  0  0  0  0  0  0  0  0
   -7.6441    2.8727   -1.3143 H   0  0  0  0  0  0  0  0  0  0  0  0
   -7.5395    5.3026   -0.6513 H   0  0  0  0  0  0  0  0  0  0  0  0
   -6.1716    4.8454   -1.7326 H   0  0  0  0  0  0  0  0  0  0  0  0
   -6.0738    5.0634    1.3506 H   0  0  0  0  0  0  0  0  0  0  0  0
   -5.3727    6.2254    0.1661 H   0  0  0  0  0  0  0  0  0  0  0  0
   -2.2294    3.3230    3.2504 H   0  0  0  0  0  0  0  0  0  0  0  0
   -0.1078    2.1151    3.1644 H   0  0  0  0  0  0  0  0  0  0  0  0
  2  1  2  0  0  0  0
  3  2  1  0  0  0  0
  4  3  2  0  0  0  0
  5  4  1  0  0  0  0
  6  5  1  0  0  0  0
  7  6  2  0  0  0  0
  7  3  1  0  0  0  0
  8  7  1  0  0  0  0
  8 40  1  0  0  0  0
  9  8  2  0  0  0  0
  9 41  1  0  0  0  0
 10  9  1  0  0  0  0
 10 42  1  0  0  0  0
 11 10  2  0  0  0  0
 11  6  1  0  0  0  0
 11 43  1  0  0  0  0
 12  4  1  0  0  0  0
 13 12  2  0  0  0  0
 13 44  1  0  0  0  0
 14 13  1  0  0  0  0
 14 45  1  0  0  0  0
 15 14  2  0  0  0  0
 16 15  1  0  0  0  0
 17 16  1  0  0  0  0
 17 46  1  0  0  0  0
 17 47  1  0  0  0  0
 18 17  1  0  0  0  0
 18 48  1  0  0  0  0
 18 49  1  0  0  0  0
 19 18  1  0  0  0  0
 20 19  2  0  0  0  0
 20 50  1  0  0  0  0
 21 20  1  0  0  0  0
 21 51  1  0  0  0  0
 22 21  2  0  0  0  0
 22 52  1  0  0  0  0
 23 22  1  0  0  0  0
 23 53  1  0  0  0  0
 24 23  2  0  0  0  0
 24 19  1  0  0  0  0
 24 54  1  0  0  0  0
 25 15  1  0  0  0  0
 25 55  1  0  0  0  0
 26 25  2  0  0  0  0
 26 12  1  0  0  0  0
 26 56  1  0  0  0  0
 27  2  1  0  0  0  0
 28 27  2  0  0  0  0
 28 57  1  0  0  0  0
 29 28  1  0  0  0  0
 29 58  1  0  0  0  0
 30 29  2  0  0  0  0
 31 30  1  0  0  0  0
 31 59  1  0  0  0  0
 31 60  1  0  0  0  0
 32 31  1  0  0  0  0
 32 61  1  0  0  0  0
 33 32  1  0  0  0  0
 33 62  1  0  0  0  0
 33 63  1  0  0  0  0
 34 33  1  0  0  0  0
 34 64  1  0  0  0  0
 34 65  1  0  0  0  0
 35 34  1  0  0  0  0
 35 66  1  0  0  0  0
 35 67  1  0  0  0  0
 36 35  1  0  0  0  0
 36 68  1  0  0  0  0
 36 69  1  0  0  0  0
 37 36  1  0  0  0  0
 37 32  1  0  0  0  0
 37 70  1  0  0  0  0
 37 71  1  0  0  0  0
 38 30  1  0  0  0  0
 38 72  1  0  0  0  0
 39 38  2  0  0  0  0
 39 27  1  0  0  0  0
 39 73  1  0  0  0  0
M  CHG  1  32   1
M  END
>  <MOL Chiral Flag>
0

>  <energy>
135.45603926398272

$$$$
