>441.sdf
 OpenBabel10062213493D

 39 41  0  0  0  0  0  0  0  0999 V2000
    5.8268    2.4457   -2.0369 Cl  0  0  0  0  0  0  0  0  0  0  0  0
    4.5903    1.4643   -1.2731 C   0  0  0  0  0  0  0  0  0  0  0  0
    4.0019    1.8879   -0.0771 C   0  0  0  0  0  0  0  0  0  0  0  0
    3.0173    1.1075    0.5335 C   0  0  0  0  0  0  0  0  0  0  0  0
    2.6097   -0.1016   -0.0518 C   0  0  0  0  0  0  0  0  0  0  0  0
    1.5433   -0.9238    0.6090 C   0  0  0  0  0  0  0  0  0  0  0  0
    0.3871   -0.1251    0.7424 O   0  0  0  0  0  0  0  0  0  0  0  0
   -0.7336   -0.9030    1.1263 C   0  0  1  0  0  0  0  0  0  0  0  0
   -1.5625   -0.0734    2.1259 C   0  0  0  0  0  0  0  0  0  0  0  0
   -1.7905    1.2949    1.6491 N   0  0  0  0  0  0  0  0  0  0  0  0
   -1.2631    2.4094    2.1864 C   0  0  0  0  0  0  0  0  0  0  0  0
   -1.7004    3.4876    1.4546 C   0  0  0  0  0  0  0  0  0  0  0  0
   -2.5057    3.0481    0.4646 N   0  0  0  0  0  0  0  0  0  0  0  0
   -2.5423    1.7059    0.6088 C   0  0  0  0  0  0  0  0  0  0  0  0
   -1.5199   -1.3737   -0.0920 C   0  0  0  0  0  0  0  0  0  0  0  0
   -1.3460   -0.7476   -1.3442 C   0  0  0  0  0  0  0  0  0  0  0  0
   -2.0293   -1.2105   -2.4711 C   0  0  0  0  0  0  0  0  0  0  0  0
   -2.8804   -2.3121   -2.3731 C   0  0  0  0  0  0  0  0  0  0  0  0
   -3.7143   -2.9068   -3.7974 Cl  0  0  0  0  0  0  0  0  0  0  0  0
   -3.0610   -2.9469   -1.1429 C   0  0  0  0  0  0  0  0  0  0  0  0
   -2.3952   -2.4845   -0.0014 C   0  0  0  0  0  0  0  0  0  0  0  0
   -2.6450   -3.3504    1.5131 Cl  0  0  0  0  0  0  0  0  0  0  0  0
    3.2024   -0.5229   -1.2541 C   0  0  0  0  0  0  0  0  0  0  0  0
    4.1912    0.2584   -1.8598 C   0  0  0  0  0  0  0  0  0  0  0  0
    4.3058    2.8211    0.3791 H   0  0  0  0  0  0  0  0  0  0  0  0
    2.5655    1.4450    1.4586 H   0  0  0  0  0  0  0  0  0  0  0  0
    1.3371   -1.8329   -0.0040 H   0  0  0  0  0  0  0  0  0  0  0  0
    1.9084   -1.2282    1.6147 H   0  0  0  0  0  0  0  0  0  0  0  0
   -0.4150   -1.8168    1.6843 H   0  0  0  0  0  0  0  0  0  0  0  0
   -0.9575   -0.0122    3.0580 H   0  0  0  0  0  0  0  0  0  0  0  0
   -2.5234   -0.5650    2.3876 H   0  0  0  0  0  0  0  0  0  0  0  0
   -0.6002    2.4348    3.0427 H   0  0  0  0  0  0  0  0  0  0  0  0
   -1.4480    4.5259    1.6275 H   0  0  0  0  0  0  0  0  0  0  0  0
   -3.1122    1.0490   -0.0334 H   0  0  0  0  0  0  0  0  0  0  0  0
   -0.6856    0.1031   -1.4508 H   0  0  0  0  0  0  0  0  0  0  0  0
   -1.8890   -0.7170   -3.4243 H   0  0  0  0  0  0  0  0  0  0  0  0
   -3.7136   -3.8086   -1.0742 H   0  0  0  0  0  0  0  0  0  0  0  0
    2.9012   -1.4532   -1.7199 H   0  0  0  0  0  0  0  0  0  0  0  0
    4.6455   -0.0725   -2.7850 H   0  0  0  0  0  0  0  0  0  0  0  0
  2  1  1  0  0  0  0
  3  2  2  0  0  0  0
  3 25  1  0  0  0  0
  4  3  1  0  0  0  0
  4 26  1  0  0  0  0
  5  4  2  0  0  0  0
  6  5  1  0  0  0  0
  6 27  1  0  0  0  0
  6 28  1  0  0  0  0
  7  6  1  0  0  0  0
  8  7  1  0  0  0  0
  8 29  1  1  0  0  0
  9  8  1  0  0  0  0
  9 30  1  0  0  0  0
  9 31  1  0  0  0  0
 10  9  1  0  0  0  0
 11 10  1  0  0  0  0
 11 32  1  0  0  0  0
 12 11  2  0  0  0  0
 12 33  1  0  0  0  0
 13 12  1  0  0  0  0
 14 13  2  0  0  0  0
 14 10  1  0  0  0  0
 14 34  1  0  0  0  0
 15  8  1  0  0  0  0
 16 15  2  0  0  0  0
 16 35  1  0  0  0  0
 17 16  1  0  0  0  0
 17 36  1  0  0  0  0
 18 17  2  0  0  0  0
 19 18  1  0  0  0  0
 20 18  1  0  0  0  0
 20 37  1  0  0  0  0
 21 20  2  0  0  0  0
 21 15  1  0  0  0  0
 22 21  1  0  0  0  0
 23  5  1  0  0  0  0
 23 38  1  0  0  0  0
 24 23  2  0  0  0  0
 24  2  1  0  0  0  0
 24 39  1  0  0  0  0
M  END
>  <MOL Chiral Flag>
0

>  <energy>
48.925320324932628

$$$$
