>444.sdf
 OpenBabel10062213503D

 29 30  0  0  0  0  0  0  0  0999 V2000
   -0.9655    1.9504   -0.5986 C   0  0  0  0  0  0  0  0  0  0  0  0
   -0.2235    0.6848   -0.1919 C   0  0  0  0  0  0  0  0  0  0  0  0
   -0.8821   -0.5874   -0.1474 C   0  0  0  0  0  0  0  0  0  0  0  0
   -2.3134   -0.6770   -0.3304 N   0  0  0  0  0  0  0  0  0  0  0  0
   -3.1990   -1.4312    0.4686 C   0  0  0  0  0  0  0  0  0  0  0  0
   -3.2727    0.1664    0.2700 C   0  0  0  0  0  0  0  0  0  0  0  0
   -0.0968   -1.7619    0.0893 C   0  0  0  0  0  0  0  0  0  0  0  0
    1.2750   -1.6253    0.3561 C   0  0  0  0  0  0  0  0  0  0  0  0
    1.9306   -0.3859    0.3619 C   0  0  0  0  0  0  0  0  0  0  0  0
    1.1742    0.7874    0.0712 C   0  0  0  0  0  0  0  0  0  0  0  0
    1.8168    2.1362   -0.0030 C   0  0  0  0  0  0  0  0  0  0  0  0
    2.8248    2.3754   -0.8740 N   0  0  0  0  0  0  0  0  0  0  0  0
    1.3813    3.0544    0.6761 O   0  0  0  0  0  0  0  0  0  0  0  0
    3.3391   -0.3587    0.6803 N   0  0  0  0  0  0  0  0  0  0  0  0
    3.9210    0.6726    0.8222 O   0  0  0  0  0  0  0  0  0  0  0  0
    3.9220   -1.3783    0.8982 O   0  0  0  0  0  0  0  0  0  0  0  0
   -0.6437   -3.0937    0.0376 N   0  0  0  0  0  0  0  0  0  0  0  0
   -1.6435   -3.3142   -0.5735 O   0  0  0  0  0  0  0  0  0  0  0  0
    0.0039   -4.0197    0.4249 O   0  0  0  0  0  0  0  0  0  0  0  0
   -1.0112    2.6665    0.2470 H   0  0  0  0  0  0  0  0  0  0  0  0
   -1.9818    1.7999   -0.9872 H   0  0  0  0  0  0  0  0  0  0  0  0
   -0.4320    2.4218   -1.4517 H   0  0  0  0  0  0  0  0  0  0  0  0
   -2.6644   -1.8375    1.3533 H   0  0  0  0  0  0  0  0  0  0  0  0
   -3.8019   -2.0812   -0.1992 H   0  0  0  0  0  0  0  0  0  0  0  0
   -2.7955    0.8153    1.0346 H   0  0  0  0  0  0  0  0  0  0  0  0
   -3.9103    0.5865   -0.5359 H   0  0  0  0  0  0  0  0  0  0  0  0
    1.8543   -2.5177    0.5540 H   0  0  0  0  0  0  0  0  0  0  0  0
    3.1591    1.6339   -1.5065 H   0  0  0  0  0  0  0  0  0  0  0  0
    3.2351    3.3184   -0.9458 H   0  0  0  0  0  0  0  0  0  0  0  0
  1 20  1  0  0  0  0
  1 21  1  0  0  0  0
  1 22  1  0  0  0  0
  2  1  1  0  0  0  0
  3  2  2  0  0  0  0
  4  3  1  0  0  0  0
  5  4  1  0  0  0  0
  5 23  1  0  0  0  0
  5 24  1  0  0  0  0
  6  5  1  0  0  0  0
  6  4  1  0  0  0  0
  6 25  1  0  0  0  0
  6 26  1  0  0  0  0
  7  3  1  0  0  0  0
  8  7  2  0  0  0  0
  8 27  1  0  0  0  0
  9  8  1  0  0  0  0
 10  9  2  0  0  0  0
 10  2  1  0  0  0  0
 11 10  1  0  0  0  0
 12 11  1  0  0  0  0
 12 28  1  0  0  0  0
 12 29  1  0  0  0  0
 13 11  2  0  0  0  0
 14  9  1  0  0  0  0
 15 14  2  0  0  0  0
 16 14  2  0  0  0  0
 17  7  1  0  0  0  0
 18 17  2  0  0  0  0
 19 17  2  0  0  0  0
M  END
>  <MOL Chiral Flag>
0

>  <energy>
57.707318041516459

$$$$
