>445.sdf
 OpenBabel10062213503D

 35 36  0  0  0  0  0  0  0  0999 V2000
    4.2265   -0.6930    0.2837 C   0  0  0  0  0  0  0  0  0  0  0  0
    2.7755   -0.5770    0.3624 N   0  0  0  0  0  0  0  0  0  0  0  0
    2.0386   -1.7916    0.6903 C   0  0  0  0  0  0  0  0  0  0  0  0
    2.1565    0.6454    0.1889 C   0  0  0  0  0  0  0  0  0  0  0  0
    2.8344    1.6452   -0.0105 O   0  0  0  0  0  0  0  0  0  0  0  0
    0.6704    0.8243    0.2803 C   0  0  0  0  0  0  0  0  0  0  0  0
    0.1229    1.6880    1.2739 C   0  0  0  0  0  0  0  0  0  0  0  0
   -1.2615    1.8893    1.3034 C   0  0  0  0  0  0  0  0  0  0  0  0
   -2.1437    1.2601    0.4142 C   0  0  0  0  0  0  0  0  0  0  0  0
   -1.6219    0.3373   -0.5494 C   0  0  0  0  0  0  0  0  0  0  0  0
   -2.5005   -0.3832   -1.4419 N   0  0  0  0  0  0  0  0  0  0  0  0
   -2.4237   -1.7588   -1.7317 C   0  0  0  0  0  0  0  0  0  0  0  0
   -3.7075   -1.0268   -1.0889 C   0  0  0  0  0  0  0  0  0  0  0  0
   -0.2010    0.1647   -0.6446 C   0  0  0  0  0  0  0  0  0  0  0  0
    0.3856   -0.6592   -1.7864 C   0  0  0  0  0  0  0  0  0  0  0  0
   -3.5387    1.6118    0.4924 N   0  0  0  0  0  0  0  0  0  0  0  0
   -3.9432    2.2381    1.4259 O   0  0  0  0  0  0  0  0  0  0  0  0
   -4.2488    1.4840   -0.4564 O   0  0  0  0  0  0  0  0  0  0  0  0
    0.9321    2.3637    2.2628 N   0  0  0  0  0  0  0  0  0  0  0  0
    2.0828    2.0886    2.4143 O   0  0  0  0  0  0  0  0  0  0  0  0
    0.4280    3.1433    3.0146 O   0  0  0  0  0  0  0  0  0  0  0  0
    4.5037   -1.4179   -0.5097 H   0  0  0  0  0  0  0  0  0  0  0  0
    4.7347    0.2677    0.0589 H   0  0  0  0  0  0  0  0  0  0  0  0
    4.6216   -1.0568    1.2568 H   0  0  0  0  0  0  0  0  0  0  0  0
    2.3996   -2.1928    1.6606 H   0  0  0  0  0  0  0  0  0  0  0  0
    2.2119   -2.5562   -0.0966 H   0  0  0  0  0  0  0  0  0  0  0  0
    0.9492   -1.6437    0.7989 H   0  0  0  0  0  0  0  0  0  0  0  0
   -1.6674    2.5704    2.0391 H   0  0  0  0  0  0  0  0  0  0  0  0
   -2.3468   -1.8800   -2.8319 H   0  0  0  0  0  0  0  0  0  0  0  0
   -1.7775   -2.3010   -1.0123 H   0  0  0  0  0  0  0  0  0  0  0  0
   -4.5077   -0.6500   -1.7591 H   0  0  0  0  0  0  0  0  0  0  0  0
   -3.8257   -1.0273    0.0163 H   0  0  0  0  0  0  0  0  0  0  0  0
   -0.0035   -0.2718   -2.7518 H   0  0  0  0  0  0  0  0  0  0  0  0
    0.1591   -1.7346   -1.6987 H   0  0  0  0  0  0  0  0  0  0  0  0
    1.4862   -0.6003   -1.8676 H   0  0  0  0  0  0  0  0  0  0  0  0
  1 22  1  0  0  0  0
  1 23  1  0  0  0  0
  1 24  1  0  0  0  0
  2  1  1  0  0  0  0
  3  2  1  0  0  0  0
  3 25  1  0  0  0  0
  3 26  1  0  0  0  0
  3 27  1  0  0  0  0
  4  2  1  0  0  0  0
  5  4  2  0  0  0  0
  6  4  1  0  0  0  0
  7  6  2  0  0  0  0
  8  7  1  0  0  0  0
  8 28  1  0  0  0  0
  9  8  2  0  0  0  0
 10  9  1  0  0  0  0
 11 10  1  0  0  0  0
 12 11  1  0  0  0  0
 12 29  1  0  0  0  0
 12 30  1  0  0  0  0
 13 12  1  0  0  0  0
 13 11  1  0  0  0  0
 13 31  1  0  0  0  0
 13 32  1  0  0  0  0
 14 10  2  0  0  0  0
 14  6  1  0  0  0  0
 15 14  1  0  0  0  0
 15 33  1  0  0  0  0
 15 34  1  0  0  0  0
 15 35  1  0  0  0  0
 16  9  1  0  0  0  0
 17 16  2  0  0  0  0
 18 16  2  0  0  0  0
 19  7  1  0  0  0  0
 20 19  2  0  0  0  0
 21 19  2  0  0  0  0
M  END
>  <MOL Chiral Flag>
0

>  <energy>
74.672960763325975

$$$$
