>447.sdf
 OpenBabel10062214003D

 54 56  0  0  0  0  0  0  0  0999 V2000
    0.4976    0.4530    1.9633 H   0  0  0  0  0  0  0  0  0  0  0  0
    1.3187    0.5987    1.2208 C   0  0  2  0  0  0  0  0  0  0  0  0
    1.9196   -0.7925    0.9563 C   0  0  0  0  0  0  0  0  0  0  0  0
    0.8233   -1.7968    0.6371 C   0  0  0  0  0  0  0  0  0  0  0  0
   -0.3129   -1.2791   -0.2106 C   0  0  0  0  0  0  0  0  0  0  0  0
   -0.4738    0.0984   -0.5509 C   0  0  0  0  0  0  0  0  0  0  0  0
   -1.6218    0.4570   -1.3274 C   0  0  0  0  0  0  0  0  0  0  0  0
   -1.8277    1.7363   -1.7011 O   0  0  0  0  0  0  0  0  0  0  0  0
   -2.5652   -0.5197   -1.7143 C   0  0  0  0  0  0  0  0  0  0  0  0
   -3.6658   -0.1446   -2.4060 O   0  0  0  0  0  0  0  0  0  0  0  0
   -4.8352    0.1886   -1.7510 C   0  0  0  0  0  0  0  0  0  0  0  0
   -2.3681   -1.8724   -1.3905 C   0  0  0  0  0  0  0  0  0  0  0  0
   -1.2484   -2.2299   -0.6364 C   0  0  0  0  0  0  0  0  0  0  0  0
   -3.3442   -2.9459   -1.8661 C   0  0  0  0  0  0  0  0  0  0  0  0
   -3.9502   -3.7226   -0.6903 C   0  0  0  0  0  0  0  0  0  0  0  0
   -2.6507   -3.8958   -2.8513 C   0  0  0  0  0  0  0  0  0  0  0  0
    0.6006    1.1423   -0.0986 C   0  0  1  0  0  0  0  0  0  0  0  0
   -0.0130    2.5300    0.2920 C   0  0  0  0  0  0  0  0  0  0  0  0
    1.0164    3.5089    0.8685 C   0  0  0  0  0  0  0  0  0  0  0  0
    1.5888    2.9521    2.1679 C   0  0  0  0  0  0  0  0  0  0  0  0
    2.3106    1.5976    1.9601 C   0  0  0  0  0  0  0  0  0  0  0  0
    3.6598    1.8277    1.2370 C   0  0  0  0  0  0  0  0  0  0  0  0
    2.6513    1.0596    3.3766 C   0  0  0  0  0  0  0  0  0  0  0  0
    1.4806    1.3516   -1.3398 C   0  0  0  0  0  0  0  0  0  0  0  0
    0.9343    1.8630   -2.4610 O   0  0  0  0  0  0  0  0  0  0  0  0
    2.6503    1.0151   -1.3665 O   0  0  0  0  0  0  0  0  0  0  0  0
    2.6402   -0.7497    0.1226 H   0  0  0  0  0  0  0  0  0  0  0  0
    2.4755   -1.2089    1.8180 H   0  0  0  0  0  0  0  0  0  0  0  0
    1.3061   -2.6838    0.1704 H   0  0  0  0  0  0  0  0  0  0  0  0
    0.3531   -2.1287    1.5893 H   0  0  0  0  0  0  0  0  0  0  0  0
   -2.5886    2.0230   -2.2246 H   0  0  0  0  0  0  0  0  0  0  0  0
   -4.6661    1.0521   -1.0719 H   0  0  0  0  0  0  0  0  0  0  0  0
   -5.2058   -0.6717   -1.1526 H   0  0  0  0  0  0  0  0  0  0  0  0
   -5.6092    0.4640   -2.4953 H   0  0  0  0  0  0  0  0  0  0  0  0
   -1.0938   -3.2691   -0.3732 H   0  0  0  0  0  0  0  0  0  0  0  0
   -4.1875   -2.4867   -2.4224 H   0  0  0  0  0  0  0  0  0  0  0  0
   -4.4782   -3.0267   -0.0050 H   0  0  0  0  0  0  0  0  0  0  0  0
   -4.6841   -4.4673   -1.0663 H   0  0  0  0  0  0  0  0  0  0  0  0
   -3.1706   -4.2679   -0.1183 H   0  0  0  0  0  0  0  0  0  0  0  0
   -3.3740   -4.6468   -3.2343 H   0  0  0  0  0  0  0  0  0  0  0  0
   -1.8041   -4.4318   -2.3735 H   0  0  0  0  0  0  0  0  0  0  0  0
   -2.2630   -3.3186   -3.7189 H   0  0  0  0  0  0  0  0  0  0  0  0
   -0.8224    2.3836    1.0410 H   0  0  0  0  0  0  0  0  0  0  0  0
   -0.4376    3.0646   -0.5752 H   0  0  0  0  0  0  0  0  0  0  0  0
    0.5098    4.4730    1.0912 H   0  0  0  0  0  0  0  0  0  0  0  0
    1.8142    3.7220    0.1271 H   0  0  0  0  0  0  0  0  0  0  0  0
    2.2783    3.6962    2.6250 H   0  0  0  0  0  0  0  0  0  0  0  0
    0.7343    2.8196    2.8698 H   0  0  0  0  0  0  0  0  0  0  0  0
    4.3161    2.4813    1.8518 H   0  0  0  0  0  0  0  0  0  0  0  0
    4.1966    0.8675    1.0859 H   0  0  0  0  0  0  0  0  0  0  0  0
    3.5606    2.3487    0.2734 H   0  0  0  0  0  0  0  0  0  0  0  0
    1.7253    0.8838    3.9668 H   0  0  0  0  0  0  0  0  0  0  0  0
    3.2686    1.7948    3.9381 H   0  0  0  0  0  0  0  0  0  0  0  0
    3.2298    0.1164    3.3480 H   0  0  0  0  0  0  0  0  0  0  0  0
  2  1  1  1  0  0  0
  3  2  1  0  0  0  0
  3 27  1  0  0  0  0
  3 28  1  0  0  0  0
  4  3  1  0  0  0  0
  4 29  1  0  0  0  0
  4 30  1  0  0  0  0
  5  4  1  0  0  0  0
  6  5  2  0  0  0  0
  7  6  1  0  0  0  0
  8  7  1  0  0  0  0
  8 31  1  0  0  0  0
  9  7  2  0  0  0  0
 10  9  1  0  0  0  0
 11 10  1  0  0  0  0
 11 32  1  0  0  0  0
 11 33  1  0  0  0  0
 11 34  1  0  0  0  0
 12  9  1  0  0  0  0
 13 12  2  0  0  0  0
 13  5  1  0  0  0  0
 13 35  1  0  0  0  0
 14 12  1  0  0  0  0
 14 36  1  0  0  0  0
 15 14  1  0  0  0  0
 15 37  1  0  0  0  0
 15 38  1  0  0  0  0
 15 39  1  0  0  0  0
 16 14  1  0  0  0  0
 16 40  1  0  0  0  0
 16 41  1  0  0  0  0
 16 42  1  0  0  0  0
 17  6  1  0  0  0  0
 17  2  1  0  0  0  0
 17 24  1  6  0  0  0
 18 17  1  0  0  0  0
 18 43  1  0  0  0  0
 18 44  1  0  0  0  0
 19 18  1  0  0  0  0
 19 45  1  0  0  0  0
 19 46  1  0  0  0  0
 20 19  1  0  0  0  0
 20 47  1  0  0  0  0
 20 48  1  0  0  0  0
 21 20  1  0  0  0  0
 21  2  1  0  0  0  0
 22 21  1  0  0  0  0
 22 49  1  0  0  0  0
 22 50  1  0  0  0  0
 22 51  1  0  0  0  0
 23 21  1  0  0  0  0
 23 52  1  0  0  0  0
 23 53  1  0  0  0  0
 23 54  1  0  0  0  0
 25 24  1  0  0  0  0
 26 24  2  0  0  0  0
M  END
>  <MOL Chiral Flag>
0

>  <energy>
86.586730584477891

$$$$
