>449.sdf
 OpenBabel10062214013D

 30 32  0  0  0  0  0  0  0  0999 V2000
    1.6798   -2.7813   -1.7372 O   0  0  0  0  0  0  0  0  0  0  0  0
    1.3985   -1.5754   -0.8270 S   0  0  0  0  0  0  0  0  0  0  0  0
    0.9667   -2.2228    0.4980 O   0  0  0  0  0  0  0  0  0  0  0  0
   -0.0470   -0.8189   -1.4913 N   0  0  0  0  0  0  0  0  0  0  0  0
   -1.1861   -1.5517   -1.9412 C   0  0  0  0  0  0  0  0  0  0  0  0
   -2.1548   -0.8879   -2.7312 C   0  0  0  0  0  0  0  0  0  0  0  0
   -3.2418   -1.6206   -3.1933 C   0  0  0  0  0  0  0  0  0  0  0  0
   -3.4035   -2.9370   -2.8950 C   0  0  0  0  0  0  0  0  0  0  0  0
   -4.5280   -3.3870   -3.4726 N   0  0  0  0  0  0  0  0  0  0  0  0
   -5.0908   -2.3847   -4.1393 N   0  0  0  0  0  0  0  0  0  0  0  0
   -4.3176   -1.2819   -3.9834 C   0  0  0  0  0  0  0  0  0  0  0  0
   -2.4940   -3.6333   -2.1094 C   0  0  0  0  0  0  0  0  0  0  0  0
   -1.3691   -2.9339   -1.6294 C   0  0  0  0  0  0  0  0  0  0  0  0
    2.8397   -0.5181   -0.6817 C   0  0  0  0  0  0  0  0  0  0  0  0
    3.6945   -0.6328    0.4227 C   0  0  0  0  0  0  0  0  0  0  0  0
    4.8244    0.1862    0.5215 C   0  0  0  0  0  0  0  0  0  0  0  0
    5.1026    1.1201   -0.4816 C   0  0  0  0  0  0  0  0  0  0  0  0
    4.2508    1.2366   -1.5842 C   0  0  0  0  0  0  0  0  0  0  0  0
    3.1209    0.4187   -1.6852 C   0  0  0  0  0  0  0  0  0  0  0  0
    0.0023    0.1913   -1.6890 H   0  0  0  0  0  0  0  0  0  0  0  0
   -2.0478    0.1584   -2.9885 H   0  0  0  0  0  0  0  0  0  0  0  0
   -4.9131   -4.3565   -3.4250 H   0  0  0  0  0  0  0  0  0  0  0  0
   -4.5274   -0.3146   -4.4198 H   0  0  0  0  0  0  0  0  0  0  0  0
   -2.6408   -4.6807   -1.8787 H   0  0  0  0  0  0  0  0  0  0  0  0
   -0.6579   -3.4697   -1.0206 H   0  0  0  0  0  0  0  0  0  0  0  0
    3.4875   -1.3557    1.2010 H   0  0  0  0  0  0  0  0  0  0  0  0
    5.4852    0.0956    1.3738 H   0  0  0  0  0  0  0  0  0  0  0  0
    5.9782    1.7519   -0.4054 H   0  0  0  0  0  0  0  0  0  0  0  0
    4.4672    1.9586   -2.3611 H   0  0  0  0  0  0  0  0  0  0  0  0
    2.4676    0.5114   -2.5435 H   0  0  0  0  0  0  0  0  0  0  0  0
  2  1  2  0  0  0  0
  3  2  2  0  0  0  0
  4  2  1  0  0  0  0
  4 20  1  0  0  0  0
  5  4  1  0  0  0  0
  6  5  2  0  0  0  0
  6 21  1  0  0  0  0
  7  6  1  0  0  0  0
  8  7  2  0  0  0  0
  9  8  1  0  0  0  0
  9 22  1  0  0  0  0
 10  9  1  0  0  0  0
 11 10  2  0  0  0  0
 11  7  1  0  0  0  0
 11 23  1  0  0  0  0
 12  8  1  0  0  0  0
 12 24  1  0  0  0  0
 13 12  2  0  0  0  0
 13  5  1  0  0  0  0
 13 25  1  0  0  0  0
 14  2  1  0  0  0  0
 15 14  2  0  0  0  0
 15 26  1  0  0  0  0
 16 15  1  0  0  0  0
 16 27  1  0  0  0  0
 17 16  2  0  0  0  0
 17 28  1  0  0  0  0
 18 17  1  0  0  0  0
 18 29  1  0  0  0  0
 19 18  2  0  0  0  0
 19 14  1  0  0  0  0
 19 30  1  0  0  0  0
M  END
>  <MOL Chiral Flag>
0

>  <energy>
3.6756158379920763

$$$$
