>451.sdf
 OpenBabel10062214033D

 79 82  0  0  0  0  0  0  0  0999 V2000
    9.0099   -3.6701   -0.5918 C   0  0  0  0  0  0  0  0  0  0  0  0
    9.1347   -2.2077   -0.1695 C   0  0  0  0  0  0  0  0  0  0  0  0
    8.2653   -1.2822   -1.0271 C   0  0  0  0  0  0  0  0  0  0  0  0
    6.8595   -1.6003   -0.8602 N   0  0  0  0  0  0  0  0  0  0  0  0
    6.0132   -1.9650   -1.9432 C   0  0  0  0  0  0  0  0  0  0  0  0
    4.7045   -2.2199   -1.7061 N   0  0  0  0  0  0  0  0  0  0  0  0
    3.8658   -2.5515   -2.7235 C   0  0  0  0  0  0  0  0  0  0  0  0
    2.4839   -2.7616   -2.4609 N   0  0  0  0  0  0  0  0  0  0  0  0
    1.9830   -2.5900   -1.1128 C   0  0  0  0  0  0  0  0  0  0  0  0
    0.4556   -2.7127   -1.0000 C   0  0  0  0  0  0  0  0  0  0  0  0
    0.0755   -2.4197    0.4572 C   0  0  0  0  0  0  0  0  0  0  0  0
   -1.4213   -2.3857    0.7550 C   0  0  0  0  0  0  0  0  0  0  0  0
   -1.5297   -2.0227    2.0800 O   0  0  0  0  0  0  0  0  0  0  0  0
   -2.6627   -1.7930    2.7748 C   0  0  0  0  0  0  0  0  0  0  0  0
   -2.5548   -1.3709    4.0554 N   0  0  0  0  0  0  0  0  0  0  0  0
   -3.6590   -1.1216    4.7968 C   0  0  0  0  0  0  0  0  0  0  0  0
   -3.5090   -0.6336    6.2098 C   0  0  0  0  0  0  0  0  0  0  0  0
   -2.7518   -1.5616    7.1446 C   0  0  0  0  0  0  0  0  0  0  0  0
   -2.4749   -1.1107    8.4471 C   0  0  0  0  0  0  0  0  0  0  0  0
   -1.7652   -1.9162    9.3428 C   0  0  0  0  0  0  0  0  0  0  0  0
   -1.3277   -3.1826    8.9515 C   0  0  0  0  0  0  0  0  0  0  0  0
   -1.6010   -3.6483    7.6644 C   0  0  0  0  0  0  0  0  0  0  0  0
   -2.3086   -2.8482    6.7618 C   0  0  0  0  0  0  0  0  0  0  0  0
   -4.8878   -1.2760    4.2429 N   0  0  0  0  0  0  0  0  0  0  0  0
   -5.0124   -1.6920    2.9538 C   0  0  0  0  0  0  0  0  0  0  0  0
   -6.3108   -1.8187    2.3880 N   0  0  0  0  0  0  0  0  0  0  0  0
   -6.5448   -2.2822    1.0335 C   0  0  0  0  0  0  0  0  0  0  0  0
   -7.4728   -3.5023    1.0365 C   0  0  0  0  0  0  0  0  0  0  0  0
   -6.8664   -4.6901    1.7810 C   0  0  0  0  0  0  0  0  0  0  0  0
   -3.8938   -1.9542    2.2173 N   0  0  0  0  0  0  0  0  0  0  0  0
    4.3467   -2.6277   -3.9915 N   0  0  0  0  0  0  0  0  0  0  0  0
    5.6619   -2.3739   -4.2386 C   0  0  0  0  0  0  0  0  0  0  0  0
    6.2026   -2.4136   -5.6400 C   0  0  0  0  0  0  0  0  0  0  0  0
    6.1276   -3.7904   -6.2547 C   0  0  0  0  0  0  0  0  0  0  0  0
    4.8855   -4.4025   -6.5014 C   0  0  0  0  0  0  0  0  0  0  0  0
    4.8300   -5.6729   -7.0836 C   0  0  0  0  0  0  0  0  0  0  0  0
    6.0092   -6.3405   -7.4251 C   0  0  0  0  0  0  0  0  0  0  0  0
    7.2470   -5.7389   -7.1869 C   0  0  0  0  0  0  0  0  0  0  0  0
    7.3090   -4.4690   -6.6061 C   0  0  0  0  0  0  0  0  0  0  0  0
    6.4884   -2.0378   -3.2125 N   0  0  0  0  0  0  0  0  0  0  0  0
    9.6684   -4.2967    0.0461 H   0  0  0  0  0  0  0  0  0  0  0  0
    9.3192   -3.7917   -1.6516 H   0  0  0  0  0  0  0  0  0  0  0  0
    7.9643   -4.0248   -0.4731 H   0  0  0  0  0  0  0  0  0  0  0  0
   10.1967   -1.8969   -0.2732 H   0  0  0  0  0  0  0  0  0  0  0  0
    8.8449   -2.1066    0.8994 H   0  0  0  0  0  0  0  0  0  0  0  0
    8.4294   -0.2342   -0.6968 H   0  0  0  0  0  0  0  0  0  0  0  0
    8.5858   -1.3565   -2.0879 H   0  0  0  0  0  0  0  0  0  0  0  0
    6.4525   -1.5428    0.0857 H   0  0  0  0  0  0  0  0  0  0  0  0
    1.8406   -2.9814   -3.2368 H   0  0  0  0  0  0  0  0  0  0  0  0
    2.4686   -3.3378   -0.4471 H   0  0  0  0  0  0  0  0  0  0  0  0
    2.2690   -1.5699   -0.7710 H   0  0  0  0  0  0  0  0  0  0  0  0
    0.1193   -3.7300   -1.2962 H   0  0  0  0  0  0  0  0  0  0  0  0
   -0.0220   -1.9609   -1.6656 H   0  0  0  0  0  0  0  0  0  0  0  0
    0.4791   -1.4167    0.7245 H   0  0  0  0  0  0  0  0  0  0  0  0
    0.5538   -3.1756    1.1197 H   0  0  0  0  0  0  0  0  0  0  0  0
   -1.9132   -1.6209    0.1147 H   0  0  0  0  0  0  0  0  0  0  0  0
   -1.8858   -3.3805    0.5799 H   0  0  0  0  0  0  0  0  0  0  0  0
   -2.9548    0.3285    6.1571 H   0  0  0  0  0  0  0  0  0  0  0  0
   -4.5107   -0.4316    6.6471 H   0  0  0  0  0  0  0  0  0  0  0  0
   -2.8033   -0.1284    8.7638 H   0  0  0  0  0  0  0  0  0  0  0  0
   -1.5522   -1.5562   10.3411 H   0  0  0  0  0  0  0  0  0  0  0  0
   -0.7770   -3.8038    9.6460 H   0  0  0  0  0  0  0  0  0  0  0  0
   -1.2628   -4.6317    7.3636 H   0  0  0  0  0  0  0  0  0  0  0  0
   -2.5051   -3.2422    5.7755 H   0  0  0  0  0  0  0  0  0  0  0  0
   -7.1257   -1.5575    2.9640 H   0  0  0  0  0  0  0  0  0  0  0  0
   -5.5976   -2.5386    0.5130 H   0  0  0  0  0  0  0  0  0  0  0  0
   -7.0377   -1.4672    0.4615 H   0  0  0  0  0  0  0  0  0  0  0  0
   -8.4410   -3.2299    1.5111 H   0  0  0  0  0  0  0  0  0  0  0  0
   -7.6733   -3.8028   -0.0144 H   0  0  0  0  0  0  0  0  0  0  0  0
   -5.9089   -4.9932    1.3074 H   0  0  0  0  0  0  0  0  0  0  0  0
   -6.6828   -4.4327    2.8457 H   0  0  0  0  0  0  0  0  0  0  0  0
   -7.5711   -5.5475    1.7447 H   0  0  0  0  0  0  0  0  0  0  0  0
    7.2635   -2.0800   -5.6081 H   0  0  0  0  0  0  0  0  0  0  0  0
    5.6484   -1.6898   -6.2745 H   0  0  0  0  0  0  0  0  0  0  0  0
    3.9631   -3.8954   -6.2510 H   0  0  0  0  0  0  0  0  0  0  0  0
    3.8719   -6.1390   -7.2729 H   0  0  0  0  0  0  0  0  0  0  0  0
    5.9638   -7.3229   -7.8768 H   0  0  0  0  0  0  0  0  0  0  0  0
    8.1598   -6.2557   -7.4541 H   0  0  0  0  0  0  0  0  0  0  0  0
    8.2767   -4.0155   -6.4301 H   0  0  0  0  0  0  0  0  0  0  0  0
  1 41  1  0  0  0  0
  1 42  1  0  0  0  0
  1 43  1  0  0  0  0
  2  1  1  0  0  0  0
  2 44  1  0  0  0  0
  2 45  1  0  0  0  0
  3  2  1  0  0  0  0
  3 46  1  0  0  0  0
  3 47  1  0  0  0  0
  4  3  1  0  0  0  0
  4 48  1  0  0  0  0
  5  4  1  0  0  0  0
  6  5  2  0  0  0  0
  7  6  1  0  0  0  0
  8  7  1  0  0  0  0
  8 49  1  0  0  0  0
  9  8  1  0  0  0  0
  9 50  1  0  0  0  0
  9 51  1  0  0  0  0
 10  9  1  0  0  0  0
 10 52  1  0  0  0  0
 10 53  1  0  0  0  0
 11 10  1  0  0  0  0
 11 54  1  0  0  0  0
 11 55  1  0  0  0  0
 12 11  1  0  0  0  0
 12 56  1  0  0  0  0
 12 57  1  0  0  0  0
 13 12  1  0  0  0  0
 14 13  1  0  0  0  0
 15 14  2  0  0  0  0
 16 15  1  0  0  0  0
 17 16  1  0  0  0  0
 17 58  1  0  0  0  0
 17 59  1  0  0  0  0
 18 17  1  0  0  0  0
 19 18  2  0  0  0  0
 19 60  1  0  0  0  0
 20 19  1  0  0  0  0
 20 61  1  0  0  0  0
 21 20  2  0  0  0  0
 21 62  1  0  0  0  0
 22 21  1  0  0  0  0
 22 63  1  0  0  0  0
 23 22  2  0  0  0  0
 23 18  1  0  0  0  0
 23 64  1  0  0  0  0
 24 16  2  0  0  0  0
 25 24  1  0  0  0  0
 26 25  1  0  0  0  0
 26 65  1  0  0  0  0
 27 26  1  0  0  0  0
 27 66  1  0  0  0  0
 27 67  1  0  0  0  0
 28 27  1  0  0  0  0
 28 68  1  0  0  0  0
 28 69  1  0  0  0  0
 29 28  1  0  0  0  0
 29 70  1  0  0  0  0
 29 71  1  0  0  0  0
 29 72  1  0  0  0  0
 30 25  2  0  0  0  0
 30 14  1  0  0  0  0
 31  7  2  0  0  0  0
 32 31  1  0  0  0  0
 33 32  1  0  0  0  0
 33 73  1  0  0  0  0
 33 74  1  0  0  0  0
 34 33  1  0  0  0  0
 35 34  2  0  0  0  0
 35 75  1  0  0  0  0
 36 35  1  0  0  0  0
 36 76  1  0  0  0  0
 37 36  2  0  0  0  0
 37 77  1  0  0  0  0
 38 37  1  0  0  0  0
 38 78  1  0  0  0  0
 39 38  2  0  0  0  0
 39 34  1  0  0  0  0
 39 79  1  0  0  0  0
 40 32  2  0  0  0  0
 40  5  1  0  0  0  0
M  END
>  <MOL Chiral Flag>
0

>  <energy>
-301.09735410222254

$$$$
