>453.sdf
 OpenBabel10062214043D

 67 70  0  0  0  0  0  0  0  0999 V2000
    3.3895    0.8962    4.5884 C   0  0  0  0  0  0  0  0  0  0  0  0
    3.4657   -0.2713    3.8549 O   0  0  0  0  0  0  0  0  0  0  0  0
    3.4893   -0.2705    2.5011 C   0  0  0  0  0  0  0  0  0  0  0  0
    4.6807   -0.5887    1.8546 C   0  0  0  0  0  0  0  0  0  0  0  0
    4.7381   -0.6425    0.4672 C   0  0  0  0  0  0  0  0  0  0  0  0
    3.6121   -0.3397   -0.3085 C   0  0  0  0  0  0  0  0  0  0  0  0
    3.6971   -0.5957   -1.8205 C   0  0  0  0  0  0  0  0  0  0  0  0
    2.3782   -0.4504   -2.6659 C   0  0  1  0  0  0  0  0  0  0  0  0
    2.4877   -1.3690   -3.9030 C   0  0  0  0  0  0  0  0  0  0  0  0
    1.4577   -1.1049   -4.8149 O   0  0  0  0  0  0  0  0  0  0  0  0
    1.1689   -0.7425   -1.7111 C   0  0  2  0  0  0  0  0  0  0  0  0
   -0.2287   -1.0639   -2.2958 C   0  0  0  0  0  0  0  0  0  0  0  0
   -0.8607   -1.9131   -1.3646 O   0  0  0  0  0  0  0  0  0  0  0  0
   -2.2046   -1.6078   -1.1155 C   0  0  2  0  0  0  0  0  0  0  0  0
   -2.2528   -0.4680   -0.2720 O   0  0  0  0  0  0  0  0  0  0  0  0
   -3.5840   -0.1723    0.1025 C   0  0  0  0  0  0  0  0  0  0  0  0
   -4.1697   -1.3106    0.9532 C   0  0  1  0  0  0  0  0  0  0  0  0
   -5.4731   -0.9955    1.3623 O   0  0  0  0  0  0  0  0  0  0  0  0
   -4.1860   -2.5887    0.1055 C   0  0  2  0  0  0  0  0  0  0  0  0
   -4.6181   -3.6857    0.8692 O   0  0  0  0  0  0  0  0  0  0  0  0
   -2.7667   -2.8525   -0.3920 C   0  0  1  0  0  0  0  0  0  0  0  0
   -2.7686   -3.9647   -1.2522 O   0  0  0  0  0  0  0  0  0  0  0  0
    1.2072    0.3687   -0.5851 C   0  0  1  0  0  0  0  0  0  0  0  0
    0.1795    1.5530   -0.5790 C   0  0  0  0  0  0  0  0  0  0  0  0
   -0.3630    2.1127    0.6020 C   0  0  0  0  0  0  0  0  0  0  0  0
   -1.2496    3.2133    0.5643 C   0  0  0  0  0  0  0  0  0  0  0  0
   -1.7348    3.7883    1.7013 O   0  0  0  0  0  0  0  0  0  0  0  0
   -1.2905    3.5349    2.9842 C   0  0  0  0  0  0  0  0  0  0  0  0
   -1.6290    3.7515   -0.6741 C   0  0  0  0  0  0  0  0  0  0  0  0
   -2.4859    4.7932   -0.7495 O   0  0  0  0  0  0  0  0  0  0  0  0
   -1.1004    3.2228   -1.8488 C   0  0  0  0  0  0  0  0  0  0  0  0
   -0.2006    2.1570   -1.8076 C   0  0  0  0  0  0  0  0  0  0  0  0
    2.3930    0.0503    0.3284 C   0  0  0  0  0  0  0  0  0  0  0  0
    2.3289    0.0170    1.7470 C   0  0  0  0  0  0  0  0  0  0  0  0
    1.1569    0.1960    2.3776 O   0  0  0  0  0  0  0  0  0  0  0  0
    4.2866    1.5214    4.3930 H   0  0  0  0  0  0  0  0  0  0  0  0
    3.3603    0.6461    5.6687 H   0  0  0  0  0  0  0  0  0  0  0  0
    2.4835    1.4840    4.3352 H   0  0  0  0  0  0  0  0  0  0  0  0
    5.5603   -0.8328    2.4367 H   0  0  0  0  0  0  0  0  0  0  0  0
    5.6589   -0.9537   -0.0101 H   0  0  0  0  0  0  0  0  0  0  0  0
    4.5258   -0.0331   -2.3000 H   0  0  0  0  0  0  0  0  0  0  0  0
    3.9731   -1.6747   -1.8545 H   0  0  0  0  0  0  0  0  0  0  0  0
    2.2988    0.5919   -3.0472 H   0  0  0  0  0  0  0  0  0  0  0  0
    3.4533   -1.1731   -4.4191 H   0  0  0  0  0  0  0  0  0  0  0  0
    2.4635   -2.4335   -3.5694 H   0  0  0  0  0  0  0  0  0  0  0  0
    1.4051   -1.8956   -5.4129 H   0  0  0  0  0  0  0  0  0  0  0  0
    1.4516   -1.7255   -1.2621 H   0  0  0  0  0  0  0  0  0  0  0  0
   -0.8150   -0.1771   -2.6059 H   0  0  0  0  0  0  0  0  0  0  0  0
   -0.1307   -1.6900   -3.1989 H   0  0  0  0  0  0  0  0  0  0  0  0
   -2.7663   -1.4357   -2.0670 H   0  0  0  0  0  0  0  0  0  0  0  0
   -3.5674    0.7570    0.7093 H   0  0  0  0  0  0  0  0  0  0  0  0
   -4.2117    0.0365   -0.7940 H   0  0  0  0  0  0  0  0  0  0  0  0
   -3.5181   -1.4809    1.8446 H   0  0  0  0  0  0  0  0  0  0  0  0
   -5.3844   -0.3746    2.1319 H   0  0  0  0  0  0  0  0  0  0  0  0
   -4.8469   -2.4501   -0.7837 H   0  0  0  0  0  0  0  0  0  0  0  0
   -5.6093   -3.6559    0.8857 H   0  0  0  0  0  0  0  0  0  0  0  0
   -2.1326   -3.0604    0.5049 H   0  0  0  0  0  0  0  0  0  0  0  0
   -1.8636   -4.3711   -1.2091 H   0  0  0  0  0  0  0  0  0  0  0  0
    1.8422    1.1616   -1.0398 H   0  0  0  0  0  0  0  0  0  0  0  0
   -0.1044    1.7388    1.5500 H   0  0  0  0  0  0  0  0  0  0  0  0
   -1.8529    4.1753    3.6948 H   0  0  0  0  0  0  0  0  0  0  0  0
   -0.2112    3.7900    3.0688 H   0  0  0  0  0  0  0  0  0  0  0  0
   -1.4585    2.4733    3.2597 H   0  0  0  0  0  0  0  0  0  0  0  0
   -2.8829    5.1987    0.0350 H   0  0  0  0  0  0  0  0  0  0  0  0
   -1.3797    3.6520   -2.8032 H   0  0  0  0  0  0  0  0  0  0  0  0
    0.2052    1.7975   -2.7430 H   0  0  0  0  0  0  0  0  0  0  0  0
    1.0414    0.0993    3.3320 H   0  0  0  0  0  0  0  0  0  0  0  0
  1 36  1  0  0  0  0
  1 37  1  0  0  0  0
  1 38  1  0  0  0  0
  2  1  1  0  0  0  0
  3  2  1  0  0  0  0
  4  3  2  0  0  0  0
  4 39  1  0  0  0  0
  5  4  1  0  0  0  0
  5 40  1  0  0  0  0
  6  5  2  0  0  0  0
  7  6  1  0  0  0  0
  7 41  1  0  0  0  0
  7 42  1  0  0  0  0
  8  7  1  0  0  0  0
  8 43  1  6  0  0  0
  9  8  1  0  0  0  0
  9 44  1  0  0  0  0
  9 45  1  0  0  0  0
 10  9  1  0  0  0  0
 10 46  1  0  0  0  0
 11  8  1  0  0  0  0
 11 47  1  1  0  0  0
 12 11  1  0  0  0  0
 12 48  1  0  0  0  0
 12 49  1  0  0  0  0
 13 12  1  0  0  0  0
 14 13  1  0  0  0  0
 14 50  1  6  0  0  0
 15 14  1  0  0  0  0
 16 15  1  0  0  0  0
 16 51  1  0  0  0  0
 16 52  1  0  0  0  0
 17 16  1  0  0  0  0
 17 53  1  1  0  0  0
 18 17  1  0  0  0  0
 18 54  1  0  0  0  0
 19 17  1  0  0  0  0
 19 55  1  6  0  0  0
 20 19  1  0  0  0  0
 20 56  1  0  0  0  0
 21 19  1  0  0  0  0
 21 14  1  0  0  0  0
 21 57  1  1  0  0  0
 22 21  1  0  0  0  0
 22 58  1  0  0  0  0
 23 11  1  0  0  0  0
 23 59  1  6  0  0  0
 24 23  1  0  0  0  0
 25 24  2  0  0  0  0
 25 60  1  0  0  0  0
 26 25  1  0  0  0  0
 27 26  1  0  0  0  0
 28 27  1  0  0  0  0
 28 61  1  0  0  0  0
 28 62  1  0  0  0  0
 28 63  1  0  0  0  0
 29 26  2  0  0  0  0
 30 29  1  0  0  0  0
 30 64  1  0  0  0  0
 31 29  1  0  0  0  0
 31 65  1  0  0  0  0
 32 31  2  0  0  0  0
 32 24  1  0  0  0  0
 32 66  1  0  0  0  0
 33 23  1  0  0  0  0
 33  6  1  0  0  0  0
 34 33  2  0  0  0  0
 34  3  1  0  0  0  0
 35 34  1  0  0  0  0
 35 67  1  0  0  0  0
M  END
>  <MOL Chiral Flag>
0

>  <energy>
198.48970564293342

$$$$
