>46.sdf
 OpenBabel10052218083D

 59 62  0  0  0  0  0  0  0  0999 V2000
    5.9881    2.7620   -0.3976 C   0  0  0  0  0  0  0  0  0  0  0  0
    6.0045    1.5923    0.3371 O   0  0  0  0  0  0  0  0  0  0  0  0
    5.0712    0.6080    0.2578 C   0  0  0  0  0  0  0  0  0  0  0  0
    5.1386   -0.4589    1.1657 C   0  0  0  0  0  0  0  0  0  0  0  0
    4.1841   -1.4813    1.1377 C   0  0  0  0  0  0  0  0  0  0  0  0
    3.1411   -1.4432    0.2027 C   0  0  0  0  0  0  0  0  0  0  0  0
    2.0572   -2.4963    0.1974 C   0  0  0  0  0  0  0  0  0  0  0  0
    0.8024   -1.9273    0.7527 N   0  3  2  0  0  0  0  0  0  0  0  0
    0.5467   -2.3079    2.1422 C   0  0  0  0  0  0  0  0  0  0  0  0
   -0.8940   -1.8781    2.3212 C   0  0  0  0  0  0  0  0  0  0  0  0
   -1.5250   -2.3806    1.0996 N   0  3  1  0  0  0  0  0  0  0  0  0
   -2.9359   -1.9956    0.8176 C   0  0  0  0  0  0  0  0  0  0  0  0
   -3.2569   -0.5294    0.5616 C   0  0  0  0  0  0  0  0  0  0  0  0
   -3.7979   -0.1533   -0.6812 C   0  0  0  0  0  0  0  0  0  0  0  0
   -4.1389    1.1774   -0.9375 C   0  0  0  0  0  0  0  0  0  0  0  0
   -3.9478    2.1611    0.0357 C   0  0  0  0  0  0  0  0  0  0  0  0
   -4.2889    3.4437   -0.2659 O   0  0  0  0  0  0  0  0  0  0  0  0
   -4.0275    4.5475    0.5195 C   0  0  0  0  0  0  0  0  0  0  0  0
   -3.4241    1.7922    1.2906 C   0  0  0  0  0  0  0  0  0  0  0  0
   -3.0955    0.4563    1.5541 C   0  0  0  0  0  0  0  0  0  0  0  0
   -0.4512   -2.3191    0.0547 C   0  0  1  0  0  0  0  0  0  0  0  0
   -0.6877   -1.4130   -1.1569 C   0  0  0  0  0  0  0  0  0  0  0  0
   -0.7152   -0.0059   -1.0419 C   0  0  0  0  0  0  0  0  0  0  0  0
   -0.8585    0.7944   -2.1792 C   0  0  0  0  0  0  0  0  0  0  0  0
   -0.9835    0.2071   -3.4391 C   0  0  0  0  0  0  0  0  0  0  0  0
   -0.9656   -1.1825   -3.5661 C   0  0  0  0  0  0  0  0  0  0  0  0
   -0.8137   -1.9893   -2.4352 C   0  0  0  0  0  0  0  0  0  0  0  0
    3.0754   -0.3828   -0.7159 C   0  0  0  0  0  0  0  0  0  0  0  0
    4.0325    0.6315   -0.6959 C   0  0  0  0  0  0  0  0  0  0  0  0
    6.8651    3.3796   -0.1161 H   0  0  0  0  0  0  0  0  0  0  0  0
    5.0656    3.3399   -0.1718 H   0  0  0  0  0  0  0  0  0  0  0  0
    6.0454    2.5429   -1.4847 H   0  0  0  0  0  0  0  0  0  0  0  0
    5.9269   -0.4845    1.9076 H   0  0  0  0  0  0  0  0  0  0  0  0
    4.2396   -2.2840    1.8622 H   0  0  0  0  0  0  0  0  0  0  0  0
    2.3683   -3.3956    0.7748 H   0  0  0  0  0  0  0  0  0  0  0  0
    1.9287   -2.8365   -0.8546 H   0  0  0  0  0  0  0  0  0  0  0  0
    0.8647   -0.8826    0.7715 H   0  0  0  0  0  0  0  0  0  0  0  0
    1.2454   -1.8337    2.8659 H   0  0  0  0  0  0  0  0  0  0  0  0
    0.6028   -3.4177    2.2538 H   0  0  0  0  0  0  0  0  0  0  0  0
   -0.8780   -0.7736    2.3298 H   0  0  0  0  0  0  0  0  0  0  0  0
   -1.3601   -2.2667    3.2547 H   0  0  0  0  0  0  0  0  0  0  0  0
   -1.6219   -3.4085    1.3033 H   0  0  0  0  0  0  0  0  0  0  0  0
   -3.5727   -2.3145    1.6733 H   0  0  0  0  0  0  0  0  0  0  0  0
   -3.2732   -2.5980   -0.0557 H   0  0  0  0  0  0  0  0  0  0  0  0
   -3.9575   -0.8922   -1.4559 H   0  0  0  0  0  0  0  0  0  0  0  0
   -4.5521    1.4455   -1.9012 H   0  0  0  0  0  0  0  0  0  0  0  0
   -4.4495    5.4475    0.0261 H   0  0  0  0  0  0  0  0  0  0  0  0
   -2.9300    4.6851    0.6232 H   0  0  0  0  0  0  0  0  0  0  0  0
   -4.5004    4.4453    1.5189 H   0  0  0  0  0  0  0  0  0  0  0  0
   -3.2809    2.5258    2.0721 H   0  0  0  0  0  0  0  0  0  0  0  0
   -2.7348    0.2035    2.5380 H   0  0  0  0  0  0  0  0  0  0  0  0
   -0.3343   -3.3616   -0.3355 H   0  0  0  0  0  0  0  0  0  0  0  0
   -0.6131    0.4765   -0.0794 H   0  0  0  0  0  0  0  0  0  0  0  0
   -0.8668    1.8725   -2.0833 H   0  0  0  0  0  0  0  0  0  0  0  0
   -1.0900    0.8292   -4.3183 H   0  0  0  0  0  0  0  0  0  0  0  0
   -1.0594   -1.6366   -4.5440 H   0  0  0  0  0  0  0  0  0  0  0  0
   -0.7871   -3.0646   -2.5581 H   0  0  0  0  0  0  0  0  0  0  0  0
    2.2763   -0.3445   -1.4468 H   0  0  0  0  0  0  0  0  0  0  0  0
    3.9530    1.4342   -1.4168 H   0  0  0  0  0  0  0  0  0  0  0  0
  1 30  1  0  0  0  0
  1 31  1  0  0  0  0
  1 32  1  0  0  0  0
  2  1  1  0  0  0  0
  3  2  1  0  0  0  0
  4  3  2  0  0  0  0
  4 33  1  0  0  0  0
  5  4  1  0  0  0  0
  5 34  1  0  0  0  0
  6  5  2  0  0  0  0
  7  6  1  0  0  0  0
  7 35  1  0  0  0  0
  7 36  1  0  0  0  0
  8  7  1  0  0  0  0
  8 37  1  6  0  0  0
  9  8  1  0  0  0  0
  9 38  1  0  0  0  0
  9 39  1  0  0  0  0
 10  9  1  0  0  0  0
 10 40  1  0  0  0  0
 10 41  1  0  0  0  0
 11 10  1  0  0  0  0
 11 42  1  1  0  0  0
 12 11  1  0  0  0  0
 12 43  1  0  0  0  0
 12 44  1  0  0  0  0
 13 12  1  0  0  0  0
 14 13  2  0  0  0  0
 14 45  1  0  0  0  0
 15 14  1  0  0  0  0
 15 46  1  0  0  0  0
 16 15  2  0  0  0  0
 17 16  1  0  0  0  0
 18 17  1  0  0  0  0
 18 47  1  0  0  0  0
 18 48  1  0  0  0  0
 18 49  1  0  0  0  0
 19 16  1  0  0  0  0
 19 50  1  0  0  0  0
 20 19  2  0  0  0  0
 20 13  1  0  0  0  0
 20 51  1  0  0  0  0
 21 11  1  0  0  0  0
 21  8  1  0  0  0  0
 21 52  1  6  0  0  0
 22 21  1  0  0  0  0
 23 22  2  0  0  0  0
 23 53  1  0  0  0  0
 24 23  1  0  0  0  0
 24 54  1  0  0  0  0
 25 24  2  0  0  0  0
 25 55  1  0  0  0  0
 26 25  1  0  0  0  0
 26 56  1  0  0  0  0
 27 26  2  0  0  0  0
 27 22  1  0  0  0  0
 27 57  1  0  0  0  0
 28  6  1  0  0  0  0
 28 58  1  0  0  0  0
 29 28  2  0  0  0  0
 29  3  1  0  0  0  0
 29 59  1  0  0  0  0
M  CHG  2   8   1  11   1
M  END
>  <MOL Chiral Flag>
0

>  <energy>
66.776189053992482

$$$$
