>464.sdf
 OpenBabel10062214133D

 71 76  0  0  0  0  0  0  0  0999 V2000
    7.4419    1.4178    0.2825 C   0  0  0  0  0  0  0  0  0  0  0  0
    6.4419    0.5493   -0.5019 C   0  0  2  0  0  0  0  0  0  0  0  0
    6.6432   -0.8368   -0.0627 N   0  0  0  0  0  0  0  0  0  0  0  0
    7.0110   -1.8541   -0.8851 C   0  0  0  0  0  0  0  0  0  0  0  0
    7.1595   -2.9766   -0.4238 O   0  0  0  0  0  0  0  0  0  0  0  0
    7.2348   -1.6145   -2.3174 C   0  0  0  0  0  0  0  0  0  0  0  0
    7.6120   -2.6532   -3.1891 C   0  0  0  0  0  0  0  0  0  0  0  0
    7.8189   -2.3890   -4.5460 C   0  0  0  0  0  0  0  0  0  0  0  0
    7.6513   -1.0933   -5.0386 C   0  0  0  0  0  0  0  0  0  0  0  0
    7.2794   -0.0601   -4.1742 C   0  0  0  0  0  0  0  0  0  0  0  0
    7.0711   -0.3200   -2.8092 C   0  0  0  0  0  0  0  0  0  0  0  0
    6.7001    0.7331   -1.9331 N   0  0  0  0  0  0  0  0  0  0  0  0
    5.0008    1.0099   -0.2164 C   0  0  0  0  0  0  0  0  0  0  0  0
    4.0155    0.1418    0.3068 C   0  0  0  0  0  0  0  0  0  0  0  0
    2.7008    0.5854    0.5145 C   0  0  0  0  0  0  0  0  0  0  0  0
    2.3369    1.9138    0.2063 C   0  0  0  0  0  0  0  0  0  0  0  0
    1.0026    2.4321    0.3196 N   0  0  0  0  0  0  0  0  0  0  0  0
   -0.1808    1.7529    0.7399 C   0  0  0  0  0  0  0  0  0  0  0  0
   -0.1496    0.5854    1.4358 N   0  0  0  0  0  0  0  0  0  0  0  0
   -1.3115   -0.0328    1.8005 C   0  0  0  0  0  0  0  0  0  0  0  0
   -2.5003    0.5257    1.4439 N   0  0  0  0  0  0  0  0  0  0  0  0
   -2.5421    1.6885    0.7462 C   0  0  0  0  0  0  0  0  0  0  0  0
   -1.3784    2.2971    0.4118 N   0  0  0  0  0  0  0  0  0  0  0  0
   -3.7922    2.2320    0.3037 N   0  0  0  0  0  0  0  0  0  0  0  0
   -3.8452    3.4314   -0.5257 C   0  0  0  0  0  0  0  0  0  0  0  0
   -4.7287    4.4784    0.1597 C   0  0  0  0  0  0  0  0  0  0  0  0
   -6.1115    3.8776    0.4560 C   0  0  0  0  0  0  0  0  0  0  0  0
   -5.9639    2.6253    1.3361 C   0  0  0  0  0  0  0  0  0  0  0  0
   -5.0619    1.5986    0.6393 C   0  0  0  0  0  0  0  0  0  0  0  0
   -1.2891   -1.2731    2.5236 N   0  0  0  0  0  0  0  0  0  0  0  0
   -2.5212   -2.0640    2.5508 C   0  0  0  0  0  0  0  0  0  0  0  0
   -2.5200   -3.0626    3.7127 C   0  0  0  0  0  0  0  0  0  0  0  0
   -1.2552   -3.9193    3.6702 C   0  0  0  0  0  0  0  0  0  0  0  0
   -0.0375   -2.9996    3.7753 C   0  0  0  0  0  0  0  0  0  0  0  0
   -0.0224   -1.9974    2.6133 C   0  0  0  0  0  0  0  0  0  0  0  0
    3.3246    2.7733   -0.2999 C   0  0  0  0  0  0  0  0  0  0  0  0
    4.6285    2.3339   -0.5091 C   0  0  0  0  0  0  0  0  0  0  0  0
    7.3751    2.4876   -0.0047 H   0  0  0  0  0  0  0  0  0  0  0  0
    8.4794    1.0793    0.0722 H   0  0  0  0  0  0  0  0  0  0  0  0
    7.2574    1.3346    1.3749 H   0  0  0  0  0  0  0  0  0  0  0  0
    6.5105   -1.0489    0.9394 H   0  0  0  0  0  0  0  0  0  0  0  0
    7.7464   -3.6624   -2.8206 H   0  0  0  0  0  0  0  0  0  0  0  0
    8.1093   -3.1886   -5.2154 H   0  0  0  0  0  0  0  0  0  0  0  0
    7.8110   -0.8889   -6.0896 H   0  0  0  0  0  0  0  0  0  0  0  0
    7.1533    0.9418   -4.5653 H   0  0  0  0  0  0  0  0  0  0  0  0
    6.6107    1.6813   -2.3297 H   0  0  0  0  0  0  0  0  0  0  0  0
    4.2449   -0.8884    0.5391 H   0  0  0  0  0  0  0  0  0  0  0  0
    1.9949   -0.1302    0.8892 H   0  0  0  0  0  0  0  0  0  0  0  0
    0.8522    3.3830   -0.0520 H   0  0  0  0  0  0  0  0  0  0  0  0
   -4.2907    3.1675   -1.5099 H   0  0  0  0  0  0  0  0  0  0  0  0
   -2.8431    3.8674   -0.7200 H   0  0  0  0  0  0  0  0  0  0  0  0
   -4.8321    5.3713   -0.4938 H   0  0  0  0  0  0  0  0  0  0  0  0
   -4.2514    4.7935    1.1135 H   0  0  0  0  0  0  0  0  0  0  0  0
   -6.7450    4.6297    0.9724 H   0  0  0  0  0  0  0  0  0  0  0  0
   -6.6085    3.6027   -0.5011 H   0  0  0  0  0  0  0  0  0  0  0  0
   -5.5075    2.9136    2.3084 H   0  0  0  0  0  0  0  0  0  0  0  0
   -6.9622    2.1796    1.5339 H   0  0  0  0  0  0  0  0  0  0  0  0
   -4.9393    0.7100    1.2932 H   0  0  0  0  0  0  0  0  0  0  0  0
   -5.5537    1.2619   -0.2996 H   0  0  0  0  0  0  0  0  0  0  0  0
   -2.6094   -2.6167    1.5898 H   0  0  0  0  0  0  0  0  0  0  0  0
   -3.4189   -1.4189    2.6678 H   0  0  0  0  0  0  0  0  0  0  0  0
   -2.5522   -2.5078    4.6765 H   0  0  0  0  0  0  0  0  0  0  0  0
   -3.4240   -3.7066    3.6532 H   0  0  0  0  0  0  0  0  0  0  0  0
   -1.2173   -4.5013    2.7225 H   0  0  0  0  0  0  0  0  0  0  0  0
   -1.2605   -4.6341    4.5209 H   0  0  0  0  0  0  0  0  0  0  0  0
   -0.0860   -2.4461    4.7393 H   0  0  0  0  0  0  0  0  0  0  0  0
    0.8981   -3.5989    3.7662 H   0  0  0  0  0  0  0  0  0  0  0  0
    0.8293   -1.3036    2.7805 H   0  0  0  0  0  0  0  0  0  0  0  0
    0.1451   -2.5415    1.6582 H   0  0  0  0  0  0  0  0  0  0  0  0
    3.0743    3.7959   -0.5543 H   0  0  0  0  0  0  0  0  0  0  0  0
    5.3457    3.0331   -0.9168 H   0  0  0  0  0  0  0  0  0  0  0  0
  1 38  1  0  0  0  0
  1 39  1  0  0  0  0
  1 40  1  0  0  0  0
  2  1  1  1  0  0  0
  3  2  1  0  0  0  0
  3 41  1  0  0  0  0
  4  3  1  0  0  0  0
  5  4  2  0  0  0  0
  6  4  1  0  0  0  0
  7  6  2  0  0  0  0
  7 42  1  0  0  0  0
  8  7  1  0  0  0  0
  8 43  1  0  0  0  0
  9  8  2  0  0  0  0
  9 44  1  0  0  0  0
 10  9  1  0  0  0  0
 10 45  1  0  0  0  0
 11 10  2  0  0  0  0
 11  6  1  0  0  0  0
 12 11  1  0  0  0  0
 12  2  1  0  0  0  0
 12 46  1  0  0  0  0
 13  2  1  0  0  0  0
 14 13  2  0  0  0  0
 14 47  1  0  0  0  0
 15 14  1  0  0  0  0
 15 48  1  0  0  0  0
 16 15  2  0  0  0  0
 17 16  1  0  0  0  0
 17 49  1  0  0  0  0
 18 17  1  0  0  0  0
 19 18  2  0  0  0  0
 20 19  1  0  0  0  0
 21 20  2  0  0  0  0
 22 21  1  0  0  0  0
 23 22  2  0  0  0  0
 23 18  1  0  0  0  0
 24 22  1  0  0  0  0
 25 24  1  0  0  0  0
 25 50  1  0  0  0  0
 25 51  1  0  0  0  0
 26 25  1  0  0  0  0
 26 52  1  0  0  0  0
 26 53  1  0  0  0  0
 27 26  1  0  0  0  0
 27 54  1  0  0  0  0
 27 55  1  0  0  0  0
 28 27  1  0  0  0  0
 28 56  1  0  0  0  0
 28 57  1  0  0  0  0
 29 28  1  0  0  0  0
 29 24  1  0  0  0  0
 29 58  1  0  0  0  0
 29 59  1  0  0  0  0
 30 20  1  0  0  0  0
 31 30  1  0  0  0  0
 31 60  1  0  0  0  0
 31 61  1  0  0  0  0
 32 31  1  0  0  0  0
 32 62  1  0  0  0  0
 32 63  1  0  0  0  0
 33 32  1  0  0  0  0
 33 64  1  0  0  0  0
 33 65  1  0  0  0  0
 34 33  1  0  0  0  0
 34 66  1  0  0  0  0
 34 67  1  0  0  0  0
 35 34  1  0  0  0  0
 35 30  1  0  0  0  0
 35 68  1  0  0  0  0
 35 69  1  0  0  0  0
 36 16  1  0  0  0  0
 36 70  1  0  0  0  0
 37 36  2  0  0  0  0
 37 13  1  0  0  0  0
 37 71  1  0  0  0  0
M  END
>  <MOL Chiral Flag>
0

>  <energy>
-237.50938579718627

$$$$
