>467.sdf
 OpenBabel10062214153D

 50 51  0  0  0  0  0  0  0  0999 V2000
   -5.6402   -3.7062    0.2193 C   0  0  0  0  0  0  0  0  0  0  0  0
   -5.2436   -2.5633   -0.7312 C   0  0  0  0  0  0  0  0  0  0  0  0
   -4.9369   -1.2811   -0.0235 N   0  3  2  0  0  0  0  0  0  0  0  0
   -6.1231   -0.3804    0.0819 C   0  0  0  0  0  0  0  0  0  0  0  0
   -7.3033   -0.9372    0.8841 C   0  0  0  0  0  0  0  0  0  0  0  0
   -6.8871   -1.2797    2.1765 O   0  0  0  0  0  0  0  0  0  0  0  0
   -3.8567   -0.5542   -0.7519 C   0  0  0  0  0  0  0  0  0  0  0  0
   -3.0171    0.3850    0.1528 C   0  0  0  0  0  0  0  0  0  0  0  0
   -1.9293    1.0500   -0.7077 C   0  0  0  0  0  0  0  0  0  0  0  0
   -0.8038    1.8317    0.0275 C   0  0  2  0  0  0  0  0  0  0  0  0
   -1.4010    3.0177    0.8105 C   0  0  0  0  0  0  0  0  0  0  0  0
    0.1378    2.2931   -0.9953 N   0  0  0  0  0  0  0  0  0  0  0  0
    1.4271    2.9432   -0.8940 C   0  0  0  0  0  0  0  0  0  0  0  0
    2.2094    3.1875    0.2985 C   0  0  0  0  0  0  0  0  0  0  0  0
    1.8495    2.7888    1.6088 C   0  0  0  0  0  0  0  0  0  0  0  0
    2.6691    3.0874    2.7045 C   0  0  0  0  0  0  0  0  0  0  0  0
    3.8653    3.7772    2.5296 C   0  0  0  0  0  0  0  0  0  0  0  0
    4.8811    4.1513    3.9105 Cl  0  0  0  0  0  0  0  0  0  0  0  0
    4.2597    4.1628    1.2556 C   0  0  0  0  0  0  0  0  0  0  0  0
    3.4580    3.8752    0.1474 C   0  0  0  0  0  0  0  0  0  0  0  0
    3.8979    4.2595   -1.0747 N   0  0  0  0  0  0  0  0  0  0  0  0
    3.1931    4.0151   -2.1973 C   0  0  0  0  0  0  0  0  0  0  0  0
    1.9714    3.3693   -2.1245 C   0  0  0  0  0  0  0  0  0  0  0  0
   -5.7693   -4.6407   -0.3669 H   0  0  0  0  0  0  0  0  0  0  0  0
   -6.5792   -3.5320    0.7670 H   0  0  0  0  0  0  0  0  0  0  0  0
   -4.8338   -3.8767    0.9642 H   0  0  0  0  0  0  0  0  0  0  0  0
   -5.9998   -2.4165   -1.5336 H   0  0  0  0  0  0  0  0  0  0  0  0
   -4.3363   -2.9736   -1.2280 H   0  0  0  0  0  0  0  0  0  0  0  0
   -4.5679   -1.5094    0.9297 H   0  0  0  0  0  0  0  0  0  0  0  0
   -6.5009   -0.1180   -0.9337 H   0  0  0  0  0  0  0  0  0  0  0  0
   -5.8278    0.5676    0.5792 H   0  0  0  0  0  0  0  0  0  0  0  0
   -7.7511   -1.8049    0.3582 H   0  0  0  0  0  0  0  0  0  0  0  0
   -8.0876   -0.1501    0.9429 H   0  0  0  0  0  0  0  0  0  0  0  0
   -7.6691   -1.7058    2.6136 H   0  0  0  0  0  0  0  0  0  0  0  0
   -4.2730   -0.0000   -1.6258 H   0  0  0  0  0  0  0  0  0  0  0  0
   -3.1114   -1.2711   -1.1615 H   0  0  0  0  0  0  0  0  0  0  0  0
   -2.5358   -0.2297    0.9439 H   0  0  0  0  0  0  0  0  0  0  0  0
   -3.6457    1.1621    0.6330 H   0  0  0  0  0  0  0  0  0  0  0  0
   -2.4323    1.7180   -1.4436 H   0  0  0  0  0  0  0  0  0  0  0  0
   -1.4110    0.2445   -1.2746 H   0  0  0  0  0  0  0  0  0  0  0  0
   -0.3106    1.0937    0.6901 H   0  0  0  0  0  0  0  0  0  0  0  0
   -1.9614    3.6889    0.1274 H   0  0  0  0  0  0  0  0  0  0  0  0
   -0.6335    3.6360    1.3107 H   0  0  0  0  0  0  0  0  0  0  0  0
   -2.0908    2.6487    1.5987 H   0  0  0  0  0  0  0  0  0  0  0  0
   -0.1753    2.1350   -1.9671 H   0  0  0  0  0  0  0  0  0  0  0  0
    0.9620    2.2488    1.8293 H   0  0  0  0  0  0  0  0  0  0  0  0
    2.3699    2.7782    3.6978 H   0  0  0  0  0  0  0  0  0  0  0  0
    5.1974    4.6899    1.1196 H   0  0  0  0  0  0  0  0  0  0  0  0
    3.5826    4.3285   -3.1567 H   0  0  0  0  0  0  0  0  0  0  0  0
    1.4323    3.1983   -3.0488 H   0  0  0  0  0  0  0  0  0  0  0  0
  1 24  1  0  0  0  0
  1 25  1  0  0  0  0
  1 26  1  0  0  0  0
  2  1  1  0  0  0  0
  2 27  1  0  0  0  0
  2 28  1  0  0  0  0
  3  2  1  0  0  0  0
  3 29  1  1  0  0  0
  4  3  1  0  0  0  0
  4 30  1  0  0  0  0
  4 31  1  0  0  0  0
  5  4  1  0  0  0  0
  5 32  1  0  0  0  0
  5 33  1  0  0  0  0
  6  5  1  0  0  0  0
  6 34  1  0  0  0  0
  7  3  1  0  0  0  0
  7 35  1  0  0  0  0
  7 36  1  0  0  0  0
  8  7  1  0  0  0  0
  8 37  1  0  0  0  0
  8 38  1  0  0  0  0
  9  8  1  0  0  0  0
  9 39  1  0  0  0  0
  9 40  1  0  0  0  0
 10  9  1  0  0  0  0
 10 41  1  1  0  0  0
 11 10  1  0  0  0  0
 11 42  1  0  0  0  0
 11 43  1  0  0  0  0
 11 44  1  0  0  0  0
 12 10  1  0  0  0  0
 12 45  1  0  0  0  0
 13 12  1  0  0  0  0
 14 13  2  0  0  0  0
 15 14  1  0  0  0  0
 15 46  1  0  0  0  0
 16 15  2  0  0  0  0
 16 47  1  0  0  0  0
 17 16  1  0  0  0  0
 18 17  1  0  0  0  0
 19 17  2  0  0  0  0
 19 48  1  0  0  0  0
 20 19  1  0  0  0  0
 20 14  1  0  0  0  0
 21 20  2  0  0  0  0
 22 21  1  0  0  0  0
 22 49  1  0  0  0  0
 23 22  2  0  0  0  0
 23 13  1  0  0  0  0
 23 50  1  0  0  0  0
M  CHG  1   3   1
M  END
>  <MOL Chiral Flag>
0

>  <energy>
54.112971006613193

$$$$
