>468.sdf
 OpenBabel10062214163D

 24 26  0  0  0  0  0  0  0  0999 V2000
   -4.3612    0.6319    1.2919 N   0  0  0  0  0  0  0  0  0  0  0  0
   -3.0844    0.1507    0.9339 C   0  0  0  0  0  0  0  0  0  0  0  0
   -2.0436    0.9493    0.5743 N   0  0  0  0  0  0  0  0  0  0  0  0
   -0.9197    0.2045    0.2728 C   0  0  0  0  0  0  0  0  0  0  0  0
   -1.0736   -1.1768    0.3944 C   0  0  0  0  0  0  0  0  0  0  0  0
   -2.6299   -1.4426    0.8829 S   0  0  0  0  0  0  0  0  0  0  0  0
   -0.0515   -2.0806    0.1309 C   0  0  0  0  0  0  0  0  0  0  0  0
   -0.2928   -3.4030    0.2771 O   0  0  0  0  0  0  0  0  0  0  0  0
    1.2088   -1.5611   -0.2840 C   0  0  0  0  0  0  0  0  0  0  0  0
    2.2530   -2.3776   -0.5615 O   0  0  0  0  0  0  0  0  0  0  0  0
    1.3840   -0.1516   -0.4135 C   0  0  0  0  0  0  0  0  0  0  0  0
    0.3076    0.7396   -0.1311 C   0  0  0  0  0  0  0  0  0  0  0  0
    0.4927    2.1263   -0.2618 C   0  0  0  0  0  0  0  0  0  0  0  0
    1.7285    2.6329   -0.6681 C   0  0  0  0  0  0  0  0  0  0  0  0
    2.7869    1.7666   -0.9473 C   0  0  0  0  0  0  0  0  0  0  0  0
    2.6210    0.3845   -0.8224 C   0  0  0  0  0  0  0  0  0  0  0  0
   -5.1093   -0.0264    1.5522 H   0  0  0  0  0  0  0  0  0  0  0  0
   -4.5515    1.6442    1.2916 H   0  0  0  0  0  0  0  0  0  0  0  0
    0.3603   -4.0941    0.1173 H   0  0  0  0  0  0  0  0  0  0  0  0
    2.2221   -3.3395   -0.5037 H   0  0  0  0  0  0  0  0  0  0  0  0
   -0.3156    2.8156   -0.0503 H   0  0  0  0  0  0  0  0  0  0  0  0
    1.8666    3.7018   -0.7675 H   0  0  0  0  0  0  0  0  0  0  0  0
    3.7416    2.1678   -1.2623 H   0  0  0  0  0  0  0  0  0  0  0  0
    3.4600   -0.2625   -1.0458 H   0  0  0  0  0  0  0  0  0  0  0  0
  1 17  1  0  0  0  0
  1 18  1  0  0  0  0
  2  1  1  0  0  0  0
  3  2  2  0  0  0  0
  4  3  1  0  0  0  0
  5  4  2  0  0  0  0
  6  5  1  0  0  0  0
  6  2  1  0  0  0  0
  7  5  1  0  0  0  0
  8  7  1  0  0  0  0
  8 19  1  0  0  0  0
  9  7  2  0  0  0  0
 10  9  1  0  0  0  0
 10 20  1  0  0  0  0
 11  9  1  0  0  0  0
 12 11  2  0  0  0  0
 12  4  1  0  0  0  0
 13 12  1  0  0  0  0
 13 21  1  0  0  0  0
 14 13  2  0  0  0  0
 14 22  1  0  0  0  0
 15 14  1  0  0  0  0
 15 23  1  0  0  0  0
 16 15  2  0  0  0  0
 16 11  1  0  0  0  0
 16 24  1  0  0  0  0
M  END
>  <MOL Chiral Flag>
0

>  <energy>
4.6365240954035727

$$$$
