>474.sdf
 OpenBabel10062214183D

 33 35  0  0  0  0  0  0  0  0999 V2000
    6.5403    0.0401   -0.2064 O   0  0  0  0  0  0  0  0  0  0  0  0
    5.4077    0.6184    0.2431 C   0  0  0  0  0  0  0  0  0  0  0  0
    4.1555    0.1398   -0.1627 C   0  0  0  0  0  0  0  0  0  0  0  0
    2.9757    0.7300    0.3183 C   0  0  0  0  0  0  0  0  0  0  0  0
    1.6810    0.1623   -0.1118 C   0  0  0  0  0  0  0  0  0  0  0  0
    0.5571    0.5494    0.3880 N   0  0  0  0  0  0  0  0  0  0  0  0
   -0.6118   -0.0856    0.0203 N   0  0  0  0  0  0  0  0  0  0  0  0
   -1.8313    0.1268    0.7367 C   0  0  0  0  0  0  0  0  0  0  0  0
   -2.9404   -0.7620    0.6032 C   0  0  0  0  0  0  0  0  0  0  0  0
   -2.9201   -1.9060   -0.2323 C   0  0  0  0  0  0  0  0  0  0  0  0
   -4.0258   -2.7553   -0.3002 C   0  0  0  0  0  0  0  0  0  0  0  0
   -5.1680   -2.4897    0.4531 C   0  0  0  0  0  0  0  0  0  0  0  0
   -6.5440   -3.5740    0.3642 Cl  0  0  0  0  0  0  0  0  0  0  0  0
   -5.2125   -1.3669    1.2812 C   0  0  0  0  0  0  0  0  0  0  0  0
   -4.1116   -0.5042    1.3635 C   0  0  0  0  0  0  0  0  0  0  0  0
   -4.1706    0.5735    2.1878 N   0  0  0  0  0  0  0  0  0  0  0  0
   -3.1270    1.4288    2.3249 C   0  0  0  0  0  0  0  0  0  0  0  0
   -1.9455    1.2197    1.6139 C   0  0  0  0  0  0  0  0  0  0  0  0
    3.0602    1.8152    1.2084 C   0  0  0  0  0  0  0  0  0  0  0  0
    4.3136    2.2975    1.6060 C   0  0  0  0  0  0  0  0  0  0  0  0
    5.4835    1.6989    1.1265 C   0  0  0  0  0  0  0  0  0  0  0  0
    6.5192   -0.7190   -0.8075 H   0  0  0  0  0  0  0  0  0  0  0  0
    4.1009   -0.7021   -0.8432 H   0  0  0  0  0  0  0  0  0  0  0  0
    1.6962   -0.6629   -0.8200 H   0  0  0  0  0  0  0  0  0  0  0  0
   -0.5609   -0.8113   -0.7019 H   0  0  0  0  0  0  0  0  0  0  0  0
   -2.0691   -2.1748   -0.8320 H   0  0  0  0  0  0  0  0  0  0  0  0
   -3.9891   -3.6285   -0.9398 H   0  0  0  0  0  0  0  0  0  0  0  0
   -6.1011   -1.1686    1.8679 H   0  0  0  0  0  0  0  0  0  0  0  0
   -3.2138    2.2748    2.9937 H   0  0  0  0  0  0  0  0  0  0  0  0
   -1.1264    1.9155    1.7434 H   0  0  0  0  0  0  0  0  0  0  0  0
    2.1643    2.2851    1.5944 H   0  0  0  0  0  0  0  0  0  0  0  0
    4.3797    3.1325    2.2914 H   0  0  0  0  0  0  0  0  0  0  0  0
    6.4496    2.0711    1.4437 H   0  0  0  0  0  0  0  0  0  0  0  0
  1 22  1  0  0  0  0
  2  1  1  0  0  0  0
  3  2  2  0  0  0  0
  3 23  1  0  0  0  0
  4  3  1  0  0  0  0
  5  4  1  0  0  0  0
  5 24  1  0  0  0  0
  6  5  2  0  0  0  0
  7  6  1  0  0  0  0
  7 25  1  0  0  0  0
  8  7  1  0  0  0  0
  9  8  2  0  0  0  0
 10  9  1  0  0  0  0
 10 26  1  0  0  0  0
 11 10  2  0  0  0  0
 11 27  1  0  0  0  0
 12 11  1  0  0  0  0
 13 12  1  0  0  0  0
 14 12  2  0  0  0  0
 14 28  1  0  0  0  0
 15 14  1  0  0  0  0
 15  9  1  0  0  0  0
 16 15  2  0  0  0  0
 17 16  1  0  0  0  0
 17 29  1  0  0  0  0
 18 17  2  0  0  0  0
 18  8  1  0  0  0  0
 18 30  1  0  0  0  0
 19  4  2  0  0  0  0
 19 31  1  0  0  0  0
 20 19  1  0  0  0  0
 20 32  1  0  0  0  0
 21 20  2  0  0  0  0
 21  2  1  0  0  0  0
 21 33  1  0  0  0  0
M  END
>  <MOL Chiral Flag>
0

>  <energy>
65.310001044336161

$$$$
