>480.sdf
 OpenBabel10062214293D

 51 54  0  0  0  0  0  0  0  0999 V2000
   -0.4154    2.0237    1.7366 C   0  0  0  0  0  0  0  0  0  0  0  0
    0.3729    1.2145    0.6617 C   0  0  1  0  0  0  0  0  0  0  0  0
    1.3180    2.2922    0.0212 C   0  0  0  0  0  0  0  0  0  0  0  0
    2.4609    1.7239   -0.8175 C   0  0  0  0  0  0  0  0  0  0  0  0
    3.3535    0.8697    0.0882 C   0  0  0  0  0  0  0  0  0  0  0  0
    2.6064   -0.3692    0.6469 C   0  0  2  0  0  0  0  0  0  0  0  0
    2.4538   -1.3840   -0.5251 C   0  0  0  0  0  0  0  0  0  0  0  0
    1.2679    0.1228    1.3919 C   0  0  2  0  0  0  0  0  0  0  0  0
    0.3733   -1.0253    1.9484 C   0  0  0  0  0  0  0  0  0  0  0  0
   -0.4926   -1.7116    0.8737 C   0  0  0  0  0  0  0  0  0  0  0  0
   -1.4105   -0.7423    0.1023 C   0  0  1  0  0  0  0  0  0  0  0  0
   -2.6638   -0.3138    0.8936 C   0  0  0  0  0  0  0  0  0  0  0  0
   -3.5247    0.3285   -0.1953 C   0  0  1  0  0  0  0  0  0  0  0  0
   -2.9082    1.6819   -0.6137 C   0  0  0  0  0  0  0  0  0  0  0  0
   -1.5067    1.4797   -1.2363 C   0  0  0  0  0  0  0  0  0  0  0  0
   -0.5783    0.5201   -0.4202 C   0  0  1  0  0  0  0  0  0  0  0  0
   -3.3528   -0.6926   -1.2753 C   0  0  0  0  0  0  0  0  0  0  0  0
   -4.2142   -0.8789   -2.2796 C   0  0  0  0  0  0  0  0  0  0  0  0
   -2.1003   -1.4947   -1.0811 C   0  0  0  0  0  0  0  0  0  0  0  0
    3.5285   -1.0223    1.6896 C   0  0  0  0  0  0  0  0  0  0  0  0
    3.9634   -2.2916    1.5429 O   0  0  0  0  0  0  0  0  0  0  0  0
    3.8840   -0.3896    2.6729 O   0  0  0  0  0  0  0  0  0  0  0  0
   -1.0171    2.8300    1.2769 H   0  0  0  0  0  0  0  0  0  0  0  0
   -1.0296    1.4328    2.4178 H   0  0  0  0  0  0  0  0  0  0  0  0
    0.2873    2.5320    2.4323 H   0  0  0  0  0  0  0  0  0  0  0  0
    0.7547    3.0404   -0.5663 H   0  0  0  0  0  0  0  0  0  0  0  0
    1.8166    2.8782    0.8275 H   0  0  0  0  0  0  0  0  0  0  0  0
    2.0899    1.1641   -1.6980 H   0  0  0  0  0  0  0  0  0  0  0  0
    3.0669    2.5735   -1.2012 H   0  0  0  0  0  0  0  0  0  0  0  0
    4.2652    0.5568   -0.4678 H   0  0  0  0  0  0  0  0  0  0  0  0
    3.7013    1.5175    0.9247 H   0  0  0  0  0  0  0  0  0  0  0  0
    2.1343   -2.3813   -0.1731 H   0  0  0  0  0  0  0  0  0  0  0  0
    1.8108   -1.0551   -1.3526 H   0  0  0  0  0  0  0  0  0  0  0  0
    3.4484   -1.5764   -0.9841 H   0  0  0  0  0  0  0  0  0  0  0  0
    1.6792    0.6584    2.2776 H   0  0  0  0  0  0  0  0  0  0  0  0
    1.0010   -1.7791    2.4687 H   0  0  0  0  0  0  0  0  0  0  0  0
   -0.3181   -0.6205    2.7136 H   0  0  0  0  0  0  0  0  0  0  0  0
    0.1287   -2.2227    0.1365 H   0  0  0  0  0  0  0  0  0  0  0  0
   -1.0998   -2.5148    1.3455 H   0  0  0  0  0  0  0  0  0  0  0  0
   -3.1854   -1.2301    1.2623 H   0  0  0  0  0  0  0  0  0  0  0  0
   -2.5636    0.3155    1.7799 H   0  0  0  0  0  0  0  0  0  0  0  0
   -4.5663    0.4353    0.1792 H   0  0  0  0  0  0  0  0  0  0  0  0
   -2.8803    2.3435    0.2723 H   0  0  0  0  0  0  0  0  0  0  0  0
   -3.5556    2.1762   -1.3700 H   0  0  0  0  0  0  0  0  0  0  0  0
   -1.6869    0.9824   -2.2146 H   0  0  0  0  0  0  0  0  0  0  0  0
   -1.0424    2.4406   -1.5189 H   0  0  0  0  0  0  0  0  0  0  0  0
    0.1277    0.1373   -1.1667 H   0  0  0  0  0  0  0  0  0  0  0  0
   -4.0284   -1.6444   -3.0263 H   0  0  0  0  0  0  0  0  0  0  0  0
   -5.1064   -0.2659   -2.3583 H   0  0  0  0  0  0  0  0  0  0  0  0
   -2.4248   -2.5234   -0.8068 H   0  0  0  0  0  0  0  0  0  0  0  0
   -1.4340   -1.5429   -1.9694 H   0  0  0  0  0  0  0  0  0  0  0  0
  1 23  1  0  0  0  0
  1 24  1  0  0  0  0
  1 25  1  0  0  0  0
  2  1  1  1  0  0  0
  3  2  1  0  0  0  0
  3 26  1  0  0  0  0
  3 27  1  0  0  0  0
  4  3  1  0  0  0  0
  4 28  1  0  0  0  0
  4 29  1  0  0  0  0
  5  4  1  0  0  0  0
  5 30  1  0  0  0  0
  5 31  1  0  0  0  0
  6  5  1  0  0  0  0
  6  7  1  6  0  0  0
  7 32  1  0  0  0  0
  7 33  1  0  0  0  0
  7 34  1  0  0  0  0
  8  6  1  0  0  0  0
  8  2  1  0  0  0  0
  8 35  1  1  0  0  0
  9  8  1  0  0  0  0
  9 36  1  0  0  0  0
  9 37  1  0  0  0  0
 10  9  1  0  0  0  0
 10 38  1  0  0  0  0
 10 39  1  0  0  0  0
 11 10  1  1  0  0  0
 12 11  1  0  0  0  0
 12 40  1  0  0  0  0
 12 41  1  0  0  0  0
 13 12  1  0  0  0  0
 13 42  1  1  0  0  0
 14 13  1  0  0  0  0
 14 43  1  0  0  0  0
 14 44  1  0  0  0  0
 15 14  1  0  0  0  0
 15 45  1  0  0  0  0
 15 46  1  0  0  0  0
 16 15  1  0  0  0  0
 16  2  1  0  0  0  0
 16 11  1  0  0  0  0
 16 47  1  6  0  0  0
 17 13  1  0  0  0  0
 18 17  2  0  0  0  0
 18 48  1  0  0  0  0
 18 49  1  0  0  0  0
 19 17  1  0  0  0  0
 19 11  1  0  0  0  0
 19 50  1  0  0  0  0
 19 51  1  0  0  0  0
 20  6  1  0  0  0  0
 21 20  1  0  0  0  0
 22 20  2  0  0  0  0
M  END
>  <MOL Chiral Flag>
0

>  <energy>
215.19246022869581

$$$$
