>484.sdf
 OpenBabel10102215493D

 40 42  0  0  0  0  0  0  0  0999 V2000
    1.6615    2.1723    1.0179 C   0  0  0  0  0  0  0  0  0  0  0  0
    0.9011    0.8510    1.2718 C   0  0  1  0  0  0  0  0  0  0  0  0
   -0.5598    1.2250    1.6027 C   0  0  0  0  0  0  0  0  0  0  0  0
   -1.3937    0.1087    2.2320 C   0  0  0  0  0  0  0  0  0  0  0  0
   -2.0193   -0.9064    1.2649 C   0  0  2  0  0  0  0  0  0  0  0  0
   -1.0623   -1.7691    0.3567 C   0  0  1  0  0  0  0  0  0  0  0  0
   -1.4674   -1.5566   -0.9567 O   0  0  0  0  0  0  0  0  0  0  0  0
   -2.4888   -0.7060   -1.0461 C   0  0  0  0  0  0  0  0  0  0  0  0
   -3.0007   -0.3854   -2.1071 O   0  0  0  0  0  0  0  0  0  0  0  0
   -2.9212   -0.2768    0.2460 C   0  0  0  0  0  0  0  0  0  0  0  0
   -3.9691    0.5209    0.4923 C   0  0  0  0  0  0  0  0  0  0  0  0
    0.4904   -1.6467    0.5074 C   0  0  2  0  0  0  0  0  0  0  0  0
    1.0961   -2.7758   -0.3868 C   0  0  0  0  0  0  0  0  0  0  0  0
    0.8124   -1.9691    1.8420 O   0  0  0  0  0  0  0  0  0  0  0  0
    1.1187   -0.2246    0.1349 C   0  0  1  0  0  0  0  0  0  0  0  0
    0.7108    0.2935   -1.2882 C   0  0  0  0  0  0  0  0  0  0  0  0
    1.9737    0.8952   -1.9115 C   0  0  0  0  0  0  0  0  0  0  0  0
    2.9825    0.1686   -1.1136 C   0  0  0  0  0  0  0  0  0  0  0  0
    4.1822    0.2398   -1.3241 O   0  0  0  0  0  0  0  0  0  0  0  0
    2.4871   -0.3926    0.0011 O   0  0  0  0  0  0  0  0  0  0  0  0
    1.5835    2.8398    1.9030 H   0  0  0  0  0  0  0  0  0  0  0  0
    1.2303    2.7220    0.1578 H   0  0  0  0  0  0  0  0  0  0  0  0
    2.7445    1.9962    0.8576 H   0  0  0  0  0  0  0  0  0  0  0  0
    1.3525    0.4403    2.2020 H   0  0  0  0  0  0  0  0  0  0  0  0
   -0.5008    1.9997    2.4008 H   0  0  0  0  0  0  0  0  0  0  0  0
   -1.0845    1.6943    0.7436 H   0  0  0  0  0  0  0  0  0  0  0  0
   -0.8122   -0.3990    3.0304 H   0  0  0  0  0  0  0  0  0  0  0  0
   -2.2494    0.5973    2.7474 H   0  0  0  0  0  0  0  0  0  0  0  0
   -2.6442   -1.5914    1.8821 H   0  0  0  0  0  0  0  0  0  0  0  0
   -1.3168   -2.8282    0.5936 H   0  0  0  0  0  0  0  0  0  0  0  0
   -4.5667    0.9142   -0.3241 H   0  0  0  0  0  0  0  0  0  0  0  0
   -4.2380    0.7822    1.5099 H   0  0  0  0  0  0  0  0  0  0  0  0
    2.2014   -2.8196   -0.2924 H   0  0  0  0  0  0  0  0  0  0  0  0
    0.7136   -3.7687   -0.0657 H   0  0  0  0  0  0  0  0  0  0  0  0
    0.8495   -2.6675   -1.4606 H   0  0  0  0  0  0  0  0  0  0  0  0
    1.8013   -2.0054    1.9279 H   0  0  0  0  0  0  0  0  0  0  0  0
    0.5566   -0.5967   -1.9257 H   0  0  0  0  0  0  0  0  0  0  0  0
   -0.2201    0.8887   -1.3810 H   0  0  0  0  0  0  0  0  0  0  0  0
    2.1058    1.9779   -1.7235 H   0  0  0  0  0  0  0  0  0  0  0  0
    2.0126    0.6982   -3.0054 H   0  0  0  0  0  0  0  0  0  0  0  0
  1 21  1  0  0  0  0
  1 22  1  0  0  0  0
  1 23  1  0  0  0  0
  2  1  1  0  0  0  0
  2 24  1  1  0  0  0
  3  2  1  0  0  0  0
  3 25  1  0  0  0  0
  3 26  1  0  0  0  0
  4  3  1  0  0  0  0
  4 27  1  0  0  0  0
  4 28  1  0  0  0  0
  5  4  1  0  0  0  0
  5 29  1  1  0  0  0
  6  5  1  0  0  0  0
  6 30  1  1  0  0  0
  7  6  1  0  0  0  0
  8  7  1  0  0  0  0
  9  8  2  0  0  0  0
 10  8  1  0  0  0  0
 10  5  1  0  0  0  0
 11 10  2  0  0  0  0
 11 31  1  0  0  0  0
 11 32  1  0  0  0  0
 12  6  1  0  0  0  0
 12 13  1  6  0  0  0
 13 33  1  0  0  0  0
 13 34  1  0  0  0  0
 13 35  1  0  0  0  0
 14 12  1  0  0  0  0
 14 36  1  0  0  0  0
 15 12  1  0  0  0  0
 15  2  1  0  0  0  0
 15 16  1  6  0  0  0
 16 37  1  0  0  0  0
 16 38  1  0  0  0  0
 17 16  1  0  0  0  0
 17 39  1  0  0  0  0
 17 40  1  0  0  0  0
 18 17  1  0  0  0  0
 19 18  2  0  0  0  0
 20 18  1  0  0  0  0
 20 15  1  0  0  0  0
M  END
>  <MOL Chiral Flag>
0

>  <energy>
75.906671681938093

$$$$
