>495.sdf
 OpenBabel10062214463D

 86 91  0  0  0  0  0  0  0  0999 V2000
   -2.4850   -4.2595   -5.4385 C   0  0  0  0  0  0  0  0  0  0  0  0
   -2.2275   -3.9419   -3.9991 C   0  0  0  0  0  0  0  0  0  0  0  0
   -1.6537   -4.7565   -3.2926 O   0  0  0  0  0  0  0  0  0  0  0  0
   -2.6540   -2.7493   -3.5031 O   0  0  0  0  0  0  0  0  0  0  0  0
   -2.1631   -2.0412   -2.4467 C   0  0  0  0  0  0  0  0  0  0  0  0
   -0.9641   -2.3775   -1.7787 C   0  0  0  0  0  0  0  0  0  0  0  0
   -0.4626   -1.5532   -0.7643 C   0  0  0  0  0  0  0  0  0  0  0  0
   -1.1378   -0.3783   -0.4034 C   0  0  0  0  0  0  0  0  0  0  0  0
   -2.3428   -0.0576   -1.0560 C   0  0  0  0  0  0  0  0  0  0  0  0
   -2.8499   -0.8858   -2.0594 C   0  0  0  0  0  0  0  0  0  0  0  0
   -0.5134    0.5967    0.5793 C   0  0  1  0  0  0  0  0  0  0  0  0
   -0.2961    1.7462   -0.1774 O   0  0  0  0  0  0  0  0  0  0  0  0
   -0.3460    3.0274    0.2672 C   0  0  0  0  0  0  0  0  0  0  0  0
   -0.2085    4.0665   -0.6602 C   0  0  0  0  0  0  0  0  0  0  0  0
   -0.2201    5.4091   -0.2379 C   0  0  0  0  0  0  0  0  0  0  0  0
   -0.1500    6.4872   -1.0783 O   0  0  0  0  0  0  0  0  0  0  0  0
   -0.1373    6.6618   -2.4368 C   0  0  0  0  0  0  0  0  0  0  0  0
   -0.1077    5.5445   -3.4416 C   0  0  0  0  0  0  0  0  0  0  0  0
   -0.1529    7.8052   -2.8649 O   0  0  0  0  0  0  0  0  0  0  0  0
   -0.3179    5.6735    1.1383 C   0  0  0  0  0  0  0  0  0  0  0  0
   -0.4636    4.6343    2.0787 C   0  0  0  0  0  0  0  0  0  0  0  0
   -0.5881    4.9237    3.3901 O   0  0  0  0  0  0  0  0  0  0  0  0
   -0.5167    3.3005    1.6355 C   0  0  0  0  0  0  0  0  0  0  0  0
   -0.8081    2.1393    2.5256 C   0  0  0  0  0  0  0  0  0  0  0  0
   -0.7522    2.2199    3.7429 O   0  0  0  0  0  0  0  0  0  0  0  0
   -1.3768    0.9238    1.8294 C   0  0  2  0  0  0  0  0  0  0  0  0
   -1.8498   -0.2957    2.6614 C   0  0  0  0  0  0  0  0  0  0  0  0
   -1.0690   -0.9616    3.6801 C   0  0  0  0  0  0  0  0  0  0  0  0
    0.1428   -0.4973    4.0803 O   0  0  0  0  0  0  0  0  0  0  0  0
    0.8363   -1.0699    5.0919 C   0  0  0  0  0  0  0  0  0  0  0  0
    0.3512   -2.2433    5.6770 C   0  0  0  0  0  0  0  0  0  0  0  0
   -0.8495   -2.7690    5.3078 C   0  0  0  0  0  0  0  0  0  0  0  0
   -1.2162   -3.7850    5.8709 O   0  0  0  0  0  0  0  0  0  0  0  0
   -1.6280   -2.1268    4.3315 C   0  0  0  0  0  0  0  0  0  0  0  0
   -2.9338   -2.5786    3.9873 C   0  0  0  0  0  0  0  0  0  0  0  0
   -3.5642   -3.6373    4.5605 O   0  0  0  0  0  0  0  0  0  0  0  0
   -3.6592   -1.9029    3.0410 C   0  0  0  0  0  0  0  0  0  0  0  0
   -3.1589   -0.7900    2.3703 C   0  0  0  0  0  0  0  0  0  0  0  0
   -3.9504   -0.1575    1.4551 O   0  0  0  0  0  0  0  0  0  0  0  0
   -4.9791   -0.7078    0.7483 C   0  0  0  0  0  0  0  0  0  0  0  0
   -6.0440    0.1761    0.1889 C   0  0  0  0  0  0  0  0  0  0  0  0
   -5.0201   -1.9110    0.5305 O   0  0  0  0  0  0  0  0  0  0  0  0
    2.0983   -0.4977    5.6934 C   0  0  0  0  0  0  0  0  0  0  0  0
    2.3554   -0.7314    7.0690 C   0  0  0  0  0  0  0  0  0  0  0  0
    3.5062   -0.2751    7.6862 C   0  0  0  0  0  0  0  0  0  0  0  0
    4.4714    0.4152    6.9579 C   0  0  0  0  0  0  0  0  0  0  0  0
    5.6136    0.8616    7.5518 O   0  0  0  0  0  0  0  0  0  0  0  0
    6.2622    0.3018    8.6146 C   0  0  0  0  0  0  0  0  0  0  0  0
    6.3904   -1.1943    8.7783 C   0  0  0  0  0  0  0  0  0  0  0  0
    6.8535    1.0306    9.3954 O   0  0  0  0  0  0  0  0  0  0  0  0
    4.2469    0.6861    5.5954 C   0  0  0  0  0  0  0  0  0  0  0  0
    5.2441    1.3038    4.9145 O   0  0  0  0  0  0  0  0  0  0  0  0
    5.2175    1.6684    3.6149 C   0  0  0  0  0  0  0  0  0  0  0  0
    6.3203    1.2117    2.7192 C   0  0  0  0  0  0  0  0  0  0  0  0
    4.3046    2.3509    3.1749 O   0  0  0  0  0  0  0  0  0  0  0  0
    3.0436    0.2446    4.9627 C   0  0  0  0  0  0  0  0  0  0  0  0
   -2.0784   -5.2584   -5.7047 H   0  0  0  0  0  0  0  0  0  0  0  0
   -1.9859   -3.4951   -6.0722 H   0  0  0  0  0  0  0  0  0  0  0  0
   -3.5751   -4.2420   -5.6427 H   0  0  0  0  0  0  0  0  0  0  0  0
   -0.3848   -3.2423   -2.0562 H   0  0  0  0  0  0  0  0  0  0  0  0
    0.4788   -1.8076   -0.2952 H   0  0  0  0  0  0  0  0  0  0  0  0
   -2.8734    0.8546   -0.8151 H   0  0  0  0  0  0  0  0  0  0  0  0
   -3.7660   -0.6074   -2.5670 H   0  0  0  0  0  0  0  0  0  0  0  0
    0.4695    0.2084    0.9237 H   0  0  0  0  0  0  0  0  0  0  0  0
   -0.1089    3.7884   -1.6880 H   0  0  0  0  0  0  0  0  0  0  0  0
   -1.0156    4.9127   -3.3535 H   0  0  0  0  0  0  0  0  0  0  0  0
   -0.0981    5.9556   -4.4754 H   0  0  0  0  0  0  0  0  0  0  0  0
    0.8207    4.9497   -3.3200 H   0  0  0  0  0  0  0  0  0  0  0  0
   -0.3099    6.7027    1.4764 H   0  0  0  0  0  0  0  0  0  0  0  0
   -0.5432    5.8345    3.7148 H   0  0  0  0  0  0  0  0  0  0  0  0
   -2.2852    1.3656    1.3753 H   0  0  0  0  0  0  0  0  0  0  0  0
    0.9077   -2.7636    6.4441 H   0  0  0  0  0  0  0  0  0  0  0  0
   -3.2667   -4.1972    5.2800 H   0  0  0  0  0  0  0  0  0  0  0  0
   -4.6607   -2.2548    2.8411 H   0  0  0  0  0  0  0  0  0  0  0  0
   -6.7942   -0.4234   -0.3706 H   0  0  0  0  0  0  0  0  0  0  0  0
   -5.5918    0.9227   -0.4946 H   0  0  0  0  0  0  0  0  0  0  0  0
   -6.5580    0.6996    1.0223 H   0  0  0  0  0  0  0  0  0  0  0  0
    1.6505   -1.2568    7.6958 H   0  0  0  0  0  0  0  0  0  0  0  0
    3.6358   -0.4621    8.7430 H   0  0  0  0  0  0  0  0  0  0  0  0
    6.8992   -1.6135    7.8859 H   0  0  0  0  0  0  0  0  0  0  0  0
    7.0075   -1.4333    9.6722 H   0  0  0  0  0  0  0  0  0  0  0  0
    5.4202   -1.7064    8.9057 H   0  0  0  0  0  0  0  0  0  0  0  0
    6.8691    2.0772    2.2989 H   0  0  0  0  0  0  0  0  0  0  0  0
    5.8878    0.6004    1.8999 H   0  0  0  0  0  0  0  0  0  0  0  0
    7.0287    0.5736    3.2925 H   0  0  0  0  0  0  0  0  0  0  0  0
    2.8719    0.4245    3.9112 H   0  0  0  0  0  0  0  0  0  0  0  0
  1 57  1  0  0  0  0
  1 58  1  0  0  0  0
  1 59  1  0  0  0  0
  2  1  1  0  0  0  0
  3  2  2  0  0  0  0
  4  2  1  0  0  0  0
  5  4  1  0  0  0  0
  6  5  2  0  0  0  0
  6 60  1  0  0  0  0
  7  6  1  0  0  0  0
  7 61  1  0  0  0  0
  8  7  2  0  0  0  0
  9  8  1  0  0  0  0
  9 62  1  0  0  0  0
 10  9  2  0  0  0  0
 10  5  1  0  0  0  0
 10 63  1  0  0  0  0
 11  8  1  0  0  0  0
 11 64  1  1  0  0  0
 12 11  1  0  0  0  0
 13 12  1  0  0  0  0
 14 13  2  0  0  0  0
 14 65  1  0  0  0  0
 15 14  1  0  0  0  0
 16 15  1  0  0  0  0
 17 16  1  0  0  0  0
 18 17  1  0  0  0  0
 18 66  1  0  0  0  0
 18 67  1  0  0  0  0
 18 68  1  0  0  0  0
 19 17  2  0  0  0  0
 20 15  2  0  0  0  0
 20 69  1  0  0  0  0
 21 20  1  0  0  0  0
 22 21  1  0  0  0  0
 22 70  1  0  0  0  0
 23 21  2  0  0  0  0
 23 13  1  0  0  0  0
 24 23  1  0  0  0  0
 25 24  2  0  0  0  0
 26 24  1  0  0  0  0
 26 11  1  0  0  0  0
 26 71  1  6  0  0  0
 27 26  1  0  0  0  0
 28 27  2  0  0  0  0
 29 28  1  0  0  0  0
 30 29  1  0  0  0  0
 31 30  2  0  0  0  0
 31 72  1  0  0  0  0
 32 31  1  0  0  0  0
 33 32  2  0  0  0  0
 34 32  1  0  0  0  0
 34 28  1  0  0  0  0
 35 34  2  0  0  0  0
 36 35  1  0  0  0  0
 36 73  1  0  0  0  0
 37 35  1  0  0  0  0
 37 74  1  0  0  0  0
 38 37  2  0  0  0  0
 38 27  1  0  0  0  0
 39 38  1  0  0  0  0
 40 39  1  0  0  0  0
 41 40  1  0  0  0  0
 41 75  1  0  0  0  0
 41 76  1  0  0  0  0
 41 77  1  0  0  0  0
 42 40  2  0  0  0  0
 43 30  1  0  0  0  0
 44 43  2  0  0  0  0
 44 78  1  0  0  0  0
 45 44  1  0  0  0  0
 45 79  1  0  0  0  0
 46 45  2  0  0  0  0
 47 46  1  0  0  0  0
 48 47  1  0  0  0  0
 49 48  1  0  0  0  0
 49 80  1  0  0  0  0
 49 81  1  0  0  0  0
 49 82  1  0  0  0  0
 50 48  2  0  0  0  0
 51 46  1  0  0  0  0
 52 51  1  0  0  0  0
 53 52  1  0  0  0  0
 54 53  1  0  0  0  0
 54 83  1  0  0  0  0
 54 84  1  0  0  0  0
 54 85  1  0  0  0  0
 55 53  2  0  0  0  0
 56 51  2  0  0  0  0
 56 43  1  0  0  0  0
 56 86  1  0  0  0  0
M  END
>  <MOL Chiral Flag>
0

>  <energy>
226.90875096516365

$$$$
