>498.sdf
 OpenBabel10062214473D

 32 34  0  0  0  0  0  0  0  0999 V2000
   -0.2065   -5.4801   -0.0978 O   0  0  0  0  0  0  0  0  0  0  0  0
   -0.7362   -4.2503   -0.2566 C   0  0  0  0  0  0  0  0  0  0  0  0
    0.0210   -3.1116    0.0312 C   0  0  0  0  0  0  0  0  0  0  0  0
   -0.5244   -1.8394   -0.1404 C   0  0  0  0  0  0  0  0  0  0  0  0
   -1.8501   -1.6848   -0.6067 C   0  0  0  0  0  0  0  0  0  0  0  0
   -2.6188   -2.8418   -0.8926 C   0  0  0  0  0  0  0  0  0  0  0  0
   -3.8882   -2.7361   -1.3410 O   0  0  0  0  0  0  0  0  0  0  0  0
   -2.0493   -4.1150   -0.7147 C   0  0  0  0  0  0  0  0  0  0  0  0
   -2.3425   -0.3702   -0.7727 C   0  0  0  0  0  0  0  0  0  0  0  0
   -3.4797   -0.1693   -1.1641 O   0  0  0  0  0  0  0  0  0  0  0  0
   -1.5050    0.7182   -0.4919 C   0  0  0  0  0  0  0  0  0  0  0  0
   -1.9692    1.9792   -0.6551 O   0  0  0  0  0  0  0  0  0  0  0  0
   -0.1957    0.4662   -0.0344 C   0  0  0  0  0  0  0  0  0  0  0  0
    0.2271   -0.7807    0.1276 O   0  0  0  0  0  0  0  0  0  0  0  0
    0.7618    1.5459    0.2258 C   0  0  0  0  0  0  0  0  0  0  0  0
    1.0648    1.9229    1.5396 C   0  0  0  0  0  0  0  0  0  0  0  0
    2.0133    2.9235    1.7849 C   0  0  0  0  0  0  0  0  0  0  0  0
    2.2787    3.2801    3.0594 O   0  0  0  0  0  0  0  0  0  0  0  0
    2.6796    3.5356    0.7046 C   0  0  0  0  0  0  0  0  0  0  0  0
    3.6103    4.4854    0.9336 O   0  0  0  0  0  0  0  0  0  0  0  0
    2.3765    3.1474   -0.6095 C   0  0  0  0  0  0  0  0  0  0  0  0
    1.4174    2.1619   -0.8472 C   0  0  0  0  0  0  0  0  0  0  0  0
    0.7017   -5.6044    0.2143 H   0  0  0  0  0  0  0  0  0  0  0  0
    1.0404   -3.2122    0.3831 H   0  0  0  0  0  0  0  0  0  0  0  0
   -4.4236   -3.5162   -1.5465 H   0  0  0  0  0  0  0  0  0  0  0  0
   -2.6287   -5.0027   -0.9369 H   0  0  0  0  0  0  0  0  0  0  0  0
   -1.4411    2.7618   -0.4450 H   0  0  0  0  0  0  0  0  0  0  0  0
    0.5609    1.4439    2.3709 H   0  0  0  0  0  0  0  0  0  0  0  0
    2.9203    3.9699    3.2796 H   0  0  0  0  0  0  0  0  0  0  0  0
    4.0941    4.9089    0.2099 H   0  0  0  0  0  0  0  0  0  0  0  0
    2.8896    3.6044   -1.4463 H   0  0  0  0  0  0  0  0  0  0  0  0
    1.2011    1.8597   -1.8650 H   0  0  0  0  0  0  0  0  0  0  0  0
  1 23  1  0  0  0  0
  2  1  1  0  0  0  0
  3  2  2  0  0  0  0
  3 24  1  0  0  0  0
  4  3  1  0  0  0  0
  5  4  2  0  0  0  0
  6  5  1  0  0  0  0
  7  6  1  0  0  0  0
  7 25  1  0  0  0  0
  8  6  2  0  0  0  0
  8  2  1  0  0  0  0
  8 26  1  0  0  0  0
  9  5  1  0  0  0  0
 10  9  2  0  0  0  0
 11  9  1  0  0  0  0
 12 11  1  0  0  0  0
 12 27  1  0  0  0  0
 13 11  2  0  0  0  0
 14 13  1  0  0  0  0
 14  4  1  0  0  0  0
 15 13  1  0  0  0  0
 16 15  2  0  0  0  0
 16 28  1  0  0  0  0
 17 16  1  0  0  0  0
 18 17  1  0  0  0  0
 18 29  1  0  0  0  0
 19 17  2  0  0  0  0
 20 19  1  0  0  0  0
 20 30  1  0  0  0  0
 21 19  1  0  0  0  0
 21 31  1  0  0  0  0
 22 21  2  0  0  0  0
 22 15  1  0  0  0  0
 22 32  1  0  0  0  0
M  END
>  <MOL Chiral Flag>
0

>  <energy>
63.971425027842251

$$$$
