>499.sdf
 OpenBabel10062214473D

 41 41  0  0  0  0  0  0  0  0999 V2000
   -4.9204   -9.3185   -2.9421 C   0  0  0  0  0  0  0  0  0  0  0  0
   -4.2747   -8.0225   -3.4253 C   0  0  0  0  0  0  0  0  0  0  0  0
   -3.1923   -7.5390   -2.4488 C   0  0  0  0  0  0  0  0  0  0  0  0
   -2.5605   -6.2291   -2.9356 C   0  0  0  0  0  0  0  0  0  0  0  0
   -1.4931   -5.7054   -1.9576 C   0  0  0  0  0  0  0  0  0  0  0  0
   -0.8689   -4.4173   -2.5062 C   0  0  0  0  0  0  0  0  0  0  0  0
    0.1713   -3.8047   -1.5977 C   0  0  0  0  0  0  0  0  0  0  0  0
    0.8444   -2.7285   -2.0315 C   0  0  0  0  0  0  0  0  0  0  0  0
    1.9058   -2.0153   -1.2208 C   0  0  0  0  0  0  0  0  0  0  0  0
    2.5405   -0.9408   -2.1253 C   0  0  0  0  0  0  0  0  0  0  0  0
    3.5921   -0.0153   -1.5550 C   0  0  0  0  0  0  0  0  0  0  0  0
    3.9727   -0.0037   -0.1990 C   0  0  0  0  0  0  0  0  0  0  0  0
    4.9415    0.9091    0.2493 C   0  0  0  0  0  0  0  0  0  0  0  0
    5.5387    1.8046   -0.6467 C   0  0  0  0  0  0  0  0  0  0  0  0
    6.4659    2.6804   -0.2041 O   0  0  0  0  0  0  0  0  0  0  0  0
    5.1683    1.7877   -1.9954 C   0  0  0  0  0  0  0  0  0  0  0  0
    4.2013    0.8877   -2.4426 C   0  0  0  0  0  0  0  0  0  0  0  0
   -5.3973   -9.1653   -1.9506 H   0  0  0  0  0  0  0  0  0  0  0  0
   -5.7013   -9.6386   -3.6643 H   0  0  0  0  0  0  0  0  0  0  0  0
   -4.1597  -10.1237   -2.8616 H   0  0  0  0  0  0  0  0  0  0  0  0
   -3.8272   -8.1971   -4.4284 H   0  0  0  0  0  0  0  0  0  0  0  0
   -5.0658   -7.2466   -3.5202 H   0  0  0  0  0  0  0  0  0  0  0  0
   -3.6500   -7.3750   -1.4491 H   0  0  0  0  0  0  0  0  0  0  0  0
   -2.4022   -8.3170   -2.3602 H   0  0  0  0  0  0  0  0  0  0  0  0
   -2.0977   -6.4020   -3.9329 H   0  0  0  0  0  0  0  0  0  0  0  0
   -3.3574   -5.4601   -3.0444 H   0  0  0  0  0  0  0  0  0  0  0  0
   -0.6950   -6.4701   -1.8326 H   0  0  0  0  0  0  0  0  0  0  0  0
   -1.9623   -5.5070   -0.9696 H   0  0  0  0  0  0  0  0  0  0  0  0
   -0.3916   -4.6540   -3.4828 H   0  0  0  0  0  0  0  0  0  0  0  0
   -1.6674   -3.6610   -2.6753 H   0  0  0  0  0  0  0  0  0  0  0  0
    0.3790   -4.2311   -0.6196 H   0  0  0  0  0  0  0  0  0  0  0  0
    0.6178   -2.3555   -3.0287 H   0  0  0  0  0  0  0  0  0  0  0  0
    1.4343   -1.5631   -0.3215 H   0  0  0  0  0  0  0  0  0  0  0  0
    2.6934   -2.7332   -0.9029 H   0  0  0  0  0  0  0  0  0  0  0  0
    1.7309   -0.2867   -2.5179 H   0  0  0  0  0  0  0  0  0  0  0  0
    3.0053   -1.4793   -2.9815 H   0  0  0  0  0  0  0  0  0  0  0  0
    3.5223   -0.6809    0.5131 H   0  0  0  0  0  0  0  0  0  0  0  0
    5.2257    0.9237    1.2938 H   0  0  0  0  0  0  0  0  0  0  0  0
    6.8896    3.3152   -0.8003 H   0  0  0  0  0  0  0  0  0  0  0  0
    5.6245    2.4730   -2.6989 H   0  0  0  0  0  0  0  0  0  0  0  0
    3.9227    0.8906   -3.4896 H   0  0  0  0  0  0  0  0  0  0  0  0
  1 18  1  0  0  0  0
  1 19  1  0  0  0  0
  1 20  1  0  0  0  0
  2  1  1  0  0  0  0
  2 21  1  0  0  0  0
  2 22  1  0  0  0  0
  3  2  1  0  0  0  0
  3 23  1  0  0  0  0
  3 24  1  0  0  0  0
  4  3  1  0  0  0  0
  4 25  1  0  0  0  0
  4 26  1  0  0  0  0
  5  4  1  0  0  0  0
  5 27  1  0  0  0  0
  5 28  1  0  0  0  0
  6  5  1  0  0  0  0
  6 29  1  0  0  0  0
  6 30  1  0  0  0  0
  7  6  1  0  0  0  0
  7 31  1  0  0  0  0
  8  7  2  0  0  0  0
  8 32  1  0  0  0  0
  9  8  1  0  0  0  0
  9 33  1  0  0  0  0
  9 34  1  0  0  0  0
 10  9  1  0  0  0  0
 10 35  1  0  0  0  0
 10 36  1  0  0  0  0
 11 10  1  0  0  0  0
 12 11  2  0  0  0  0
 12 37  1  0  0  0  0
 13 12  1  0  0  0  0
 13 38  1  0  0  0  0
 14 13  2  0  0  0  0
 15 14  1  0  0  0  0
 15 39  1  0  0  0  0
 16 14  1  0  0  0  0
 16 40  1  0  0  0  0
 17 16  2  0  0  0  0
 17 11  1  0  0  0  0
 17 41  1  0  0  0  0
M  END
>  <MOL Chiral Flag>
0

>  <energy>
23.516564214228186

$$$$
