>5.sdf
 OpenBabel10052217543D

 33 34  0  0  0  0  0  0  0  0999 V2000
   -1.6610    2.1048    1.5928 N   0  0  0  0  0  0  0  0  0  0  0  0
   -2.9634    2.0180    1.0183 C   0  0  0  0  0  0  0  0  0  0  0  0
   -3.7657    3.0211    1.1428 N   0  0  0  0  0  0  0  0  0  0  0  0
   -3.4280    0.8291    0.3489 N   0  0  0  0  0  0  0  0  0  0  0  0
   -2.6400   -0.2792    0.0901 N   0  0  0  0  0  0  0  0  0  0  0  0
   -1.4010   -0.2056   -0.2593 C   0  0  0  0  0  0  0  0  0  0  0  0
   -0.5793   -1.4352   -0.3990 C   0  0  0  0  0  0  0  0  0  0  0  0
   -1.1995   -2.7003   -0.4313 C   0  0  0  0  0  0  0  0  0  0  0  0
   -0.4330   -3.8622   -0.5487 C   0  0  0  0  0  0  0  0  0  0  0  0
    0.9560   -3.7799   -0.6383 C   0  0  0  0  0  0  0  0  0  0  0  0
    1.5863   -2.5360   -0.6206 C   0  0  0  0  0  0  0  0  0  0  0  0
    0.8341   -1.3584   -0.4981 C   0  0  0  0  0  0  0  0  0  0  0  0
    1.5600   -0.0760   -0.3941 C   0  0  0  0  0  0  0  0  0  0  0  0
    1.6244    0.5861    0.8425 C   0  0  0  0  0  0  0  0  0  0  0  0
    2.3455    1.7765    0.9660 C   0  0  0  0  0  0  0  0  0  0  0  0
    2.9932    2.3202   -0.1464 C   0  0  0  0  0  0  0  0  0  0  0  0
    2.9266    1.6692   -1.3827 C   0  0  0  0  0  0  0  0  0  0  0  0
    2.2209    0.4667   -1.5062 C   0  0  0  0  0  0  0  0  0  0  0  0
   -1.3498    2.9800    2.0378 H   0  0  0  0  0  0  0  0  0  0  0  0
   -1.0423    1.2911    1.6718 H   0  0  0  0  0  0  0  0  0  0  0  0
   -4.7220    2.9828    0.7630 H   0  0  0  0  0  0  0  0  0  0  0  0
   -4.4364    0.7522    0.1524 H   0  0  0  0  0  0  0  0  0  0  0  0
   -0.9380    0.7608   -0.4242 H   0  0  0  0  0  0  0  0  0  0  0  0
   -2.2769   -2.7897   -0.3677 H   0  0  0  0  0  0  0  0  0  0  0  0
   -0.9174   -4.8298   -0.5645 H   0  0  0  0  0  0  0  0  0  0  0  0
    1.5479   -4.6829   -0.7107 H   0  0  0  0  0  0  0  0  0  0  0  0
    2.6676   -2.4877   -0.6673 H   0  0  0  0  0  0  0  0  0  0  0  0
    1.1365    0.1646    1.7128 H   0  0  0  0  0  0  0  0  0  0  0  0
    2.4067    2.2740    1.9256 H   0  0  0  0  0  0  0  0  0  0  0  0
    3.5500    3.2432   -0.0492 H   0  0  0  0  0  0  0  0  0  0  0  0
    3.4268    2.0938   -2.2432 H   0  0  0  0  0  0  0  0  0  0  0  0
    2.1777   -0.0337   -2.4655 H   0  0  0  0  0  0  0  0  0  0  0  0
   -3.4635    3.8757    1.6342 H   0  0  0  0  0  0  0  0  0  0  0  0
  1 19  1  0  0  0  0
  1 20  1  0  0  0  0
  2  1  1  0  0  0  0
  3  2  2  0  0  0  0
  3 21  1  0  0  0  0
  3 33  1  0  0  0  0
  4  2  1  0  0  0  0
  4 22  1  0  0  0  0
  5  4  1  0  0  0  0
  6  5  2  0  0  0  0
  6 23  1  0  0  0  0
  7  6  1  0  0  0  0
  8  7  2  0  0  0  0
  8 24  1  0  0  0  0
  9  8  1  0  0  0  0
  9 25  1  0  0  0  0
 10  9  2  0  0  0  0
 10 26  1  0  0  0  0
 11 10  1  0  0  0  0
 11 27  1  0  0  0  0
 12 11  2  0  0  0  0
 12  7  1  0  0  0  0
 13 12  1  0  0  0  0
 14 13  2  0  0  0  0
 14 28  1  0  0  0  0
 15 14  1  0  0  0  0
 15 29  1  0  0  0  0
 16 15  2  0  0  0  0
 16 30  1  0  0  0  0
 17 16  1  0  0  0  0
 17 31  1  0  0  0  0
 18 17  2  0  0  0  0
 18 13  1  0  0  0  0
 18 32  1  0  0  0  0
M  END
>  <MOL Chiral Flag>
0

>  <energy>
-17.57877082820157

$$$$
