>50.sdf
 OpenBabel10052218103D

 57 61  0  0  0  0  0  0  0  0999 V2000
   -5.9461    0.2349    4.3686 C   0  0  0  0  0  0  0  0  0  0  0  0
   -4.7742    0.5429    3.4845 C   0  0  0  0  0  0  0  0  0  0  0  0
   -3.5381    0.9217    4.0303 C   0  0  0  0  0  0  0  0  0  0  0  0
   -2.4474    1.1857    3.1938 C   0  0  0  0  0  0  0  0  0  0  0  0
   -2.5742    1.0671    1.7986 C   0  0  0  0  0  0  0  0  0  0  0  0
   -3.8260    0.6986    1.2592 C   0  0  0  0  0  0  0  0  0  0  0  0
   -4.9125    0.4424    2.0964 C   0  0  0  0  0  0  0  0  0  0  0  0
   -1.4310    1.2904    0.9425 N   0  0  0  0  0  0  0  0  0  0  0  0
   -1.3676    1.0459   -0.3788 C   0  0  0  0  0  0  0  0  0  0  0  0
   -0.0913    1.3144   -0.8197 C   0  0  0  0  0  0  0  0  0  0  0  0
    0.3720    0.9983   -2.1848 C   0  0  0  0  0  0  0  0  0  0  0  0
   -0.3387    0.1713   -2.8594 N   0  0  0  0  0  0  0  0  0  0  0  0
    0.0274   -0.3023   -4.0930 N   0  0  0  0  0  0  0  0  0  0  0  0
    0.0448   -1.5723   -4.3445 C   0  0  0  0  0  0  0  0  0  0  0  0
   -0.1087   -2.1340   -6.0272 S   0  0  0  0  0  0  0  0  0  0  0  0
   -0.9318   -3.6583   -5.3928 C   0  0  0  0  0  0  0  0  0  0  0  0
   -0.7254   -3.6870   -3.9079 C   0  0  0  0  0  0  0  0  0  0  0  0
   -0.9930   -4.6836   -3.2543 O   0  0  0  0  0  0  0  0  0  0  0  0
   -0.1727   -2.5794   -3.3626 N   0  0  0  0  0  0  0  0  0  0  0  0
    0.2855   -2.4995   -1.9908 C   0  0  0  0  0  0  0  0  0  0  0  0
   -0.3678   -3.1805   -0.9369 C   0  0  0  0  0  0  0  0  0  0  0  0
    0.1317   -3.1137    0.3704 C   0  0  0  0  0  0  0  0  0  0  0  0
    1.2861   -2.3804    0.6482 C   0  0  0  0  0  0  0  0  0  0  0  0
    1.9483   -1.7113   -0.3785 C   0  0  0  0  0  0  0  0  0  0  0  0
    1.4578   -1.7718   -1.6855 C   0  0  0  0  0  0  0  0  0  0  0  0
    0.5985    1.7511    0.3085 C   0  0  0  0  0  0  0  0  0  0  0  0
   -0.2424    1.7003    1.3686 N   0  0  0  0  0  0  0  0  0  0  0  0
    2.0415    2.0732    0.4379 C   0  0  0  0  0  0  0  0  0  0  0  0
    2.7859    2.6062   -0.6300 C   0  0  0  0  0  0  0  0  0  0  0  0
    4.1540    2.8503   -0.4877 C   0  0  0  0  0  0  0  0  0  0  0  0
    4.8026    2.5588    0.7184 C   0  0  0  0  0  0  0  0  0  0  0  0
    6.2784    2.7929    0.8455 C   0  0  0  0  0  0  0  0  0  0  0  0
    4.0625    2.0474    1.7939 C   0  0  0  0  0  0  0  0  0  0  0  0
    2.6906    1.8181    1.6582 C   0  0  0  0  0  0  0  0  0  0  0  0
   -5.6883    0.3423    5.4432 H   0  0  0  0  0  0  0  0  0  0  0  0
   -6.7856    0.9222    4.1335 H   0  0  0  0  0  0  0  0  0  0  0  0
   -6.2757   -0.8114    4.1916 H   0  0  0  0  0  0  0  0  0  0  0  0
   -3.4161    1.0035    5.1029 H   0  0  0  0  0  0  0  0  0  0  0  0
   -1.4996    1.4640    3.6357 H   0  0  0  0  0  0  0  0  0  0  0  0
   -3.9741    0.6023    0.1949 H   0  0  0  0  0  0  0  0  0  0  0  0
   -5.8628    0.1549    1.6623 H   0  0  0  0  0  0  0  0  0  0  0  0
   -2.1688    0.6521   -0.9873 H   0  0  0  0  0  0  0  0  0  0  0  0
    1.3474    1.2776   -2.5535 H   0  0  0  0  0  0  0  0  0  0  0  0
   -0.4098   -4.5337   -5.8315 H   0  0  0  0  0  0  0  0  0  0  0  0
   -2.0170   -3.6769   -5.6273 H   0  0  0  0  0  0  0  0  0  0  0  0
   -1.2676   -3.7508   -1.1087 H   0  0  0  0  0  0  0  0  0  0  0  0
   -0.3771   -3.6351    1.1711 H   0  0  0  0  0  0  0  0  0  0  0  0
    1.6714   -2.3353    1.6592 H   0  0  0  0  0  0  0  0  0  0  0  0
    2.8492   -1.1495   -0.1645 H   0  0  0  0  0  0  0  0  0  0  0  0
    2.0053   -1.2622   -2.4672 H   0  0  0  0  0  0  0  0  0  0  0  0
    2.3172    2.8584   -1.5657 H   0  0  0  0  0  0  0  0  0  0  0  0
    4.7116    3.2609   -1.3209 H   0  0  0  0  0  0  0  0  0  0  0  0
    6.6544    2.4988    1.8483 H   0  0  0  0  0  0  0  0  0  0  0  0
    6.5038    3.8673    0.6828 H   0  0  0  0  0  0  0  0  0  0  0  0
    6.8147    2.1893    0.0823 H   0  0  0  0  0  0  0  0  0  0  0  0
    4.5480    1.8172    2.7339 H   0  0  0  0  0  0  0  0  0  0  0  0
    2.1412    1.4059    2.4956 H   0  0  0  0  0  0  0  0  0  0  0  0
  1 35  1  0  0  0  0
  1 36  1  0  0  0  0
  1 37  1  0  0  0  0
  2  1  1  0  0  0  0
  3  2  2  0  0  0  0
  3 38  1  0  0  0  0
  4  3  1  0  0  0  0
  4 39  1  0  0  0  0
  5  4  2  0  0  0  0
  6  5  1  0  0  0  0
  6 40  1  0  0  0  0
  7  6  2  0  0  0  0
  7  2  1  0  0  0  0
  7 41  1  0  0  0  0
  8  5  1  0  0  0  0
  9  8  1  0  0  0  0
  9 42  1  0  0  0  0
 10  9  2  0  0  0  0
 11 10  1  0  0  0  0
 11 43  1  0  0  0  0
 12 11  2  0  0  0  0
 13 12  1  0  0  0  0
 14 13  2  0  0  0  0
 15 14  1  0  0  0  0
 16 15  1  0  0  0  0
 16 44  1  0  0  0  0
 16 45  1  0  0  0  0
 17 16  1  0  0  0  0
 18 17  2  0  0  0  0
 19 17  1  0  0  0  0
 19 14  1  0  0  0  0
 20 19  1  0  0  0  0
 21 20  2  0  0  0  0
 21 46  1  0  0  0  0
 22 21  1  0  0  0  0
 22 47  1  0  0  0  0
 23 22  2  0  0  0  0
 23 48  1  0  0  0  0
 24 23  1  0  0  0  0
 24 49  1  0  0  0  0
 25 24  2  0  0  0  0
 25 20  1  0  0  0  0
 25 50  1  0  0  0  0
 26 10  1  0  0  0  0
 27 26  2  0  0  0  0
 27  8  1  0  0  0  0
 28 26  1  0  0  0  0
 29 28  2  0  0  0  0
 29 51  1  0  0  0  0
 30 29  1  0  0  0  0
 30 52  1  0  0  0  0
 31 30  2  0  0  0  0
 32 31  1  0  0  0  0
 32 53  1  0  0  0  0
 32 54  1  0  0  0  0
 32 55  1  0  0  0  0
 33 31  1  0  0  0  0
 33 56  1  0  0  0  0
 34 33  2  0  0  0  0
 34 28  1  0  0  0  0
 34 57  1  0  0  0  0
M  END
>  <MOL Chiral Flag>
0

>  <energy>
121.25233773204211

$$$$
