>500.sdf
 OpenBabel10062214493D

 92 93  0  0  0  0  0  0  0  0999 V2000
    6.0875   -1.5526   -1.1435 C   0  0  0  0  0  0  0  0  0  0  0  0
    7.1258   -1.6790   -0.2478 O   0  0  0  0  0  0  0  0  0  0  0  0
    8.3787   -1.2454   -0.5265 C   0  0  0  0  0  0  0  0  0  0  0  0
    8.6150   -0.6592   -1.5749 O   0  0  0  0  0  0  0  0  0  0  0  0
    9.5076   -1.5310    0.4073 C   0  0  0  0  0  0  0  0  0  0  0  0
    9.1315   -2.3208    1.6837 C   0  0  0  0  0  0  0  0  0  0  0  0
    8.3311   -1.6283    2.7161 N   0  0  0  0  0  0  0  0  0  0  0  0
    7.2251   -2.3611    3.3678 C   0  0  0  0  0  0  0  0  0  0  0  0
    5.8138   -1.6847    3.5413 C   0  0  0  0  0  0  0  0  0  0  0  0
    4.7426   -1.7895    2.3993 C   0  0  0  0  0  0  0  0  0  0  0  0
    3.2824   -1.5502    2.9620 C   0  0  0  0  0  0  0  0  0  0  0  0
    2.0664   -1.7346    1.9761 C   0  0  0  0  0  0  0  0  0  0  0  0
    0.6582   -1.6726    2.7013 C   0  0  0  0  0  0  0  0  0  0  0  0
   -0.6253   -1.8070    1.7857 C   0  0  0  0  0  0  0  0  0  0  0  0
   -2.0084   -1.8302    2.5656 C   0  0  0  0  0  0  0  0  0  0  0  0
   -3.3105   -1.8840    1.6661 C   0  0  0  0  0  0  0  0  0  0  0  0
   -4.5380   -1.9904    2.4272 O   0  0  0  0  0  0  0  0  0  0  0  0
   -5.6841   -1.5240    1.6807 C   0  0  0  0  0  0  0  0  0  0  0  0
   -7.0830   -1.9262    2.3099 C   0  0  0  0  0  0  0  0  0  0  0  0
   -8.3156   -1.2719    1.5661 C   0  0  0  0  0  0  0  0  0  0  0  0
   -9.7488   -1.4940    2.1262 C   0  0  0  0  0  0  0  0  0  0  0  0
  -10.0400   -1.1841    3.4590 C   0  0  0  0  0  0  0  0  0  0  0  0
  -11.3369   -1.3364    3.9489 C   0  0  0  0  0  0  0  0  0  0  0  0
  -12.3605   -1.7771    3.1099 C   0  0  0  0  0  0  0  0  0  0  0  0
  -12.1266   -2.0546    1.7877 N   0  3  0  0  0  0  0  0  0  0  0  0
  -10.8284   -1.9381    1.2993 C   0  0  0  0  0  0  0  0  0  0  0  0
  -13.2273   -2.5527    0.9344 C   0  0  0  0  0  0  0  0  0  0  0  0
  -14.6186   -2.1364    1.0461 C   0  0  0  0  0  0  0  0  0  0  0  0
  -15.5964   -2.7926    0.2505 C   0  0  0  0  0  0  0  0  0  0  0  0
  -15.2562   -3.8030   -0.6592 C   0  0  0  0  0  0  0  0  0  0  0  0
  -13.9139   -4.1660   -0.7868 C   0  0  0  0  0  0  0  0  0  0  0  0
  -12.9269   -3.5588   -0.0103 C   0  0  0  0  0  0  0  0  0  0  0  0
  -16.2660   -4.4451   -1.4502 N   0  0  0  0  0  0  0  0  0  0  0  0
  -17.4127   -4.1361   -1.3386 O   0  0  0  0  0  0  0  0  0  0  0  0
  -15.9672   -5.3077   -2.2239 O   0  0  0  0  0  0  0  0  0  0  0  0
  -15.0680   -1.0489    1.8763 N   0  0  0  0  0  0  0  0  0  0  0  0
  -14.3075   -0.1920    2.2100 O   0  0  0  0  0  0  0  0  0  0  0  0
  -16.2380   -0.8673    2.0362 O   0  0  0  0  0  0  0  0  0  0  0  0
    8.8150   -0.4692    3.2842 C   0  0  0  0  0  0  0  0  0  0  0  0
    9.7839    0.0928    2.7994 O   0  0  0  0  0  0  0  0  0  0  0  0
    8.2883   -0.0048    4.4533 O   0  0  0  0  0  0  0  0  0  0  0  0
    8.5504    1.2137    5.0838 C   0  0  0  0  0  0  0  0  0  0  0  0
   10.0627    1.4866    5.3026 C   0  0  0  0  0  0  0  0  0  0  0  0
    7.9271    2.3515    4.2611 C   0  0  0  0  0  0  0  0  0  0  0  0
    7.8847    1.1538    6.4661 C   0  0  0  0  0  0  0  0  0  0  0  0
    6.3298   -2.1012   -2.0799 H   0  0  0  0  0  0  0  0  0  0  0  0
    5.9112   -0.4802   -1.3737 H   0  0  0  0  0  0  0  0  0  0  0  0
    5.1703   -1.9894   -0.7035 H   0  0  0  0  0  0  0  0  0  0  0  0
   10.2349   -2.1548   -0.1593 H   0  0  0  0  0  0  0  0  0  0  0  0
   10.0373   -0.5882    0.6336 H   0  0  0  0  0  0  0  0  0  0  0  0
    8.6651   -3.2829    1.3826 H   0  0  0  0  0  0  0  0  0  0  0  0
   10.1017   -2.5901    2.1611 H   0  0  0  0  0  0  0  0  0  0  0  0
    7.5883   -2.5564    4.4030 H   0  0  0  0  0  0  0  0  0  0  0  0
    7.0779   -3.3678    2.9229 H   0  0  0  0  0  0  0  0  0  0  0  0
    5.3725   -2.2854    4.3659 H   0  0  0  0  0  0  0  0  0  0  0  0
    5.8963   -0.6470    3.9266 H   0  0  0  0  0  0  0  0  0  0  0  0
    4.9930   -1.0823    1.5815 H   0  0  0  0  0  0  0  0  0  0  0  0
    4.7705   -2.8245    1.9967 H   0  0  0  0  0  0  0  0  0  0  0  0
    3.2321   -0.5315    3.4031 H   0  0  0  0  0  0  0  0  0  0  0  0
    3.1360   -2.2858    3.7819 H   0  0  0  0  0  0  0  0  0  0  0  0
    2.1562   -2.7281    1.4864 H   0  0  0  0  0  0  0  0  0  0  0  0
    2.1270   -0.9514    1.1907 H   0  0  0  0  0  0  0  0  0  0  0  0
    0.5886   -0.7077    3.2470 H   0  0  0  0  0  0  0  0  0  0  0  0
    0.6362   -2.4939    3.4497 H   0  0  0  0  0  0  0  0  0  0  0  0
   -0.6266   -0.9537    1.0750 H   0  0  0  0  0  0  0  0  0  0  0  0
   -0.5448   -2.7472    1.1989 H   0  0  0  0  0  0  0  0  0  0  0  0
   -2.0058   -2.7190    3.2327 H   0  0  0  0  0  0  0  0  0  0  0  0
   -2.0719   -0.9220    3.2016 H   0  0  0  0  0  0  0  0  0  0  0  0
   -3.2355   -2.7708    1.0005 H   0  0  0  0  0  0  0  0  0  0  0  0
   -3.3077   -0.9627    1.0405 H   0  0  0  0  0  0  0  0  0  0  0  0
   -5.6650   -1.9217    0.6409 H   0  0  0  0  0  0  0  0  0  0  0  0
   -5.6434   -0.4136    1.6475 H   0  0  0  0  0  0  0  0  0  0  0  0
   -7.1903   -3.0321    2.3015 H   0  0  0  0  0  0  0  0  0  0  0  0
   -7.0960   -1.5836    3.3657 H   0  0  0  0  0  0  0  0  0  0  0  0
   -8.1506   -0.1740    1.5966 H   0  0  0  0  0  0  0  0  0  0  0  0
   -8.2947   -1.5814    0.4996 H   0  0  0  0  0  0  0  0  0  0  0  0
   -9.2653   -0.8280    4.1230 H   0  0  0  0  0  0  0  0  0  0  0  0
  -11.5559   -1.1144    4.9862 H   0  0  0  0  0  0  0  0  0  0  0  0
  -13.3452   -1.9141    3.5410 H   0  0  0  0  0  0  0  0  0  0  0  0
  -10.6234   -2.1521    0.2596 H   0  0  0  0  0  0  0  0  0  0  0  0
  -16.6371   -2.4969    0.3246 H   0  0  0  0  0  0  0  0  0  0  0  0
  -13.6252   -4.9423   -1.4833 H   0  0  0  0  0  0  0  0  0  0  0  0
  -11.9151   -3.9139   -0.1254 H   0  0  0  0  0  0  0  0  0  0  0  0
   10.2025    2.4299    5.8763 H   0  0  0  0  0  0  0  0  0  0  0  0
   10.5397    0.6614    5.8723 H   0  0  0  0  0  0  0  0  0  0  0  0
   10.6185    1.6312    4.3554 H   0  0  0  0  0  0  0  0  0  0  0  0
    8.0618    3.3291    4.7717 H   0  0  0  0  0  0  0  0  0  0  0  0
    8.3980    2.4110    3.2572 H   0  0  0  0  0  0  0  0  0  0  0  0
    6.8397    2.1677    4.1250 H   0  0  0  0  0  0  0  0  0  0  0  0
    8.0202    2.1104    7.0163 H   0  0  0  0  0  0  0  0  0  0  0  0
    8.3393    0.3380    7.0712 H   0  0  0  0  0  0  0  0  0  0  0  0
    6.7986    0.9473    6.3683 H   0  0  0  0  0  0  0  0  0  0  0  0
  1 46  1  0  0  0  0
  1 47  1  0  0  0  0
  1 48  1  0  0  0  0
  2  1  1  0  0  0  0
  3  2  1  0  0  0  0
  4  3  2  0  0  0  0
  5  3  1  0  0  0  0
  5 49  1  0  0  0  0
  5 50  1  0  0  0  0
  6  5  1  0  0  0  0
  6 51  1  0  0  0  0
  6 52  1  0  0  0  0
  7  6  1  0  0  0  0
  8  7  1  0  0  0  0
  8 53  1  0  0  0  0
  8 54  1  0  0  0  0
  9  8  1  0  0  0  0
  9 55  1  0  0  0  0
  9 56  1  0  0  0  0
 10  9  1  0  0  0  0
 10 57  1  0  0  0  0
 10 58  1  0  0  0  0
 11 10  1  0  0  0  0
 11 59  1  0  0  0  0
 11 60  1  0  0  0  0
 12 11  1  0  0  0  0
 12 61  1  0  0  0  0
 12 62  1  0  0  0  0
 13 12  1  0  0  0  0
 13 63  1  0  0  0  0
 13 64  1  0  0  0  0
 14 13  1  0  0  0  0
 14 65  1  0  0  0  0
 14 66  1  0  0  0  0
 15 14  1  0  0  0  0
 15 67  1  0  0  0  0
 15 68  1  0  0  0  0
 16 15  1  0  0  0  0
 16 69  1  0  0  0  0
 16 70  1  0  0  0  0
 17 16  1  0  0  0  0
 18 17  1  0  0  0  0
 18 71  1  0  0  0  0
 18 72  1  0  0  0  0
 19 18  1  0  0  0  0
 19 73  1  0  0  0  0
 19 74  1  0  0  0  0
 20 19  1  0  0  0  0
 20 75  1  0  0  0  0
 20 76  1  0  0  0  0
 21 20  1  0  0  0  0
 22 21  2  0  0  0  0
 22 77  1  0  0  0  0
 23 22  1  0  0  0  0
 23 78  1  0  0  0  0
 24 23  2  0  0  0  0
 24 79  1  0  0  0  0
 25 24  1  0  0  0  0
 26 25  2  0  0  0  0
 26 21  1  0  0  0  0
 26 80  1  0  0  0  0
 27 25  1  0  0  0  0
 28 27  2  0  0  0  0
 29 28  1  0  0  0  0
 29 81  1  0  0  0  0
 30 29  2  0  0  0  0
 31 30  1  0  0  0  0
 31 82  1  0  0  0  0
 32 31  2  0  0  0  0
 32 27  1  0  0  0  0
 32 83  1  0  0  0  0
 33 30  1  0  0  0  0
 34 33  2  0  0  0  0
 35 33  2  0  0  0  0
 36 28  1  0  0  0  0
 37 36  2  0  0  0  0
 38 36  2  0  0  0  0
 39  7  1  0  0  0  0
 40 39  2  0  0  0  0
 41 39  1  0  0  0  0
 42 41  1  0  0  0  0
 43 42  1  0  0  0  0
 43 84  1  0  0  0  0
 43 85  1  0  0  0  0
 43 86  1  0  0  0  0
 44 42  1  0  0  0  0
 44 87  1  0  0  0  0
 44 88  1  0  0  0  0
 44 89  1  0  0  0  0
 45 42  1  0  0  0  0
 45 90  1  0  0  0  0
 45 91  1  0  0  0  0
 45 92  1  0  0  0  0
M  CHG  1  25   1
M  END
>  <MOL Chiral Flag>
0

>  <energy>
103.97986274674999

$$$$
