>501.sdf
 OpenBabel10062214503D

 95101  0  0  0  0  0  0  0  0999 V2000
    8.5308   -8.7815   -3.6067 O   0  0  0  0  0  0  0  0  0  0  0  0
    8.0469   -7.8848   -2.9333 C   0  0  0  0  0  0  0  0  0  0  0  0
    7.1837   -6.9731   -3.5236 C   0  0  0  0  0  0  0  0  0  0  0  0
    6.6109   -5.9452   -2.7450 C   0  0  0  0  0  0  0  0  0  0  0  0
    6.9372   -5.8416   -1.4530 O   0  0  0  0  0  0  0  0  0  0  0  0
    7.7485   -6.7093   -0.8437 C   0  0  0  0  0  0  0  0  0  0  0  0
    8.3268   -7.7788   -1.5683 C   0  0  0  0  0  0  0  0  0  0  0  0
    9.1460   -8.7101   -0.9071 C   0  0  0  0  0  0  0  0  0  0  0  0
    9.3814   -8.5856    0.4626 C   0  0  0  0  0  0  0  0  0  0  0  0
    8.8153   -7.5268    1.1789 C   0  0  0  0  0  0  0  0  0  0  0  0
    8.0048   -6.5882    0.5285 C   0  0  0  0  0  0  0  0  0  0  0  0
    5.5728   -5.0370   -3.3173 C   0  0  0  0  0  0  0  0  0  0  0  0
    5.2505   -3.8129   -2.6951 C   0  0  0  0  0  0  0  0  0  0  0  0
    4.2107   -3.0125   -3.2004 C   0  0  0  0  0  0  0  0  0  0  0  0
    3.4749   -3.4383   -4.3260 C   0  0  0  0  0  0  0  0  0  0  0  0
    2.4232   -2.7465   -4.8310 O   0  0  0  0  0  0  0  0  0  0  0  0
    1.6036   -1.8734   -4.1444 C   0  0  0  0  0  0  0  0  0  0  0  0
    0.8377   -2.6099   -3.0389 C   0  0  0  0  0  0  0  0  0  0  0  0
   -0.1474   -1.7457   -2.5229 O   0  0  0  0  0  0  0  0  0  0  0  0
   -0.6521   -2.2157   -1.2883 C   0  0  0  0  0  0  0  0  0  0  0  0
   -2.1313   -1.8008   -1.2042 C   0  0  0  0  0  0  0  0  0  0  0  0
   -2.7995   -2.0294    0.1054 N   0  3  0  0  0  0  0  0  0  0  0  0
   -2.2547   -1.1914    1.2105 C   0  0  0  0  0  0  0  0  0  0  0  0
   -2.5470    0.3027    1.0281 C   0  0  0  0  0  0  0  0  0  0  0  0
   -2.1234    0.9903    2.1882 O   0  0  0  0  0  0  0  0  0  0  0  0
   -2.8434    2.1969    2.3134 C   0  0  0  0  0  0  0  0  0  0  0  0
   -2.4135    2.9025    3.5972 C   0  0  0  0  0  0  0  0  0  0  0  0
   -3.1723    4.0223    3.9089 O   0  0  0  0  0  0  0  0  0  0  0  0
   -3.2487    5.1598    3.1737 C   0  0  0  0  0  0  0  0  0  0  0  0
   -3.8340    5.1825    1.8979 C   0  0  0  0  0  0  0  0  0  0  0  0
   -3.9008    6.3733    1.1698 C   0  0  0  0  0  0  0  0  0  0  0  0
   -3.3942    7.5749    1.7111 C   0  0  0  0  0  0  0  0  0  0  0  0
   -2.8317    7.5427    3.0025 C   0  0  0  0  0  0  0  0  0  0  0  0
   -2.7628    6.3482    3.7224 C   0  0  0  0  0  0  0  0  0  0  0  0
   -3.4418    8.8757    0.9737 C   0  0  0  0  0  0  0  0  0  0  0  0
   -3.8896    8.9784   -0.3614 C   0  0  0  0  0  0  0  0  0  0  0  0
   -3.9019   10.2252   -0.9875 C   0  0  0  0  0  0  0  0  0  0  0  0
   -4.2839   10.3183   -2.1425 O   0  0  0  0  0  0  0  0  0  0  0  0
   -3.4741   11.3554   -0.2775 C   0  0  0  0  0  0  0  0  0  0  0  0
   -3.0405   11.1840    1.0540 C   0  0  0  0  0  0  0  0  0  0  0  0
   -3.0387    9.9769    1.6109 O   0  0  0  0  0  0  0  0  0  0  0  0
   -2.6107   12.2893    1.7963 C   0  0  0  0  0  0  0  0  0  0  0  0
   -2.6087   13.5631    1.2212 C   0  0  0  0  0  0  0  0  0  0  0  0
   -3.0342   13.7384   -0.0988 C   0  0  0  0  0  0  0  0  0  0  0  0
   -3.4663   12.6412   -0.8503 C   0  0  0  0  0  0  0  0  0  0  0  0
   -2.8208   -3.4647    0.4894 C   0  0  0  0  0  0  0  0  0  0  0  0
   -3.8065   -3.7189    1.6185 C   0  0  0  0  0  0  0  0  0  0  0  0
   -5.1766   -3.4707    1.4339 C   0  0  0  0  0  0  0  0  0  0  0  0
   -6.0651   -3.6759    2.4911 C   0  0  0  0  0  0  0  0  0  0  0  0
   -5.6068   -4.1159    3.6928 N   0  0  0  0  0  0  0  0  0  0  0  0
   -4.2872   -4.3709    3.8996 C   0  0  0  0  0  0  0  0  0  0  0  0
   -3.3633   -4.1800    2.8676 C   0  0  0  0  0  0  0  0  0  0  0  0
    3.8104   -4.6361   -4.9466 C   0  0  0  0  0  0  0  0  0  0  0  0
    4.8390   -5.4274   -4.4556 C   0  0  0  0  0  0  0  0  0  0  0  0
    6.9629   -7.0798   -4.5745 H   0  0  0  0  0  0  0  0  0  0  0  0
    9.5880   -9.5402   -1.4460 H   0  0  0  0  0  0  0  0  0  0  0  0
   10.0002   -9.3147    0.9698 H   0  0  0  0  0  0  0  0  0  0  0  0
    9.0000   -7.4397    2.2415 H   0  0  0  0  0  0  0  0  0  0  0  0
    7.5636   -5.7779    1.0950 H   0  0  0  0  0  0  0  0  0  0  0  0
    5.7976   -3.4791   -1.8214 H   0  0  0  0  0  0  0  0  0  0  0  0
    3.9777   -2.0766   -2.7096 H   0  0  0  0  0  0  0  0  0  0  0  0
    0.8630   -1.4810   -4.8740 H   0  0  0  0  0  0  0  0  0  0  0  0
    2.1737   -1.0109   -3.7392 H   0  0  0  0  0  0  0  0  0  0  0  0
    1.5649   -2.9269   -2.2562 H   0  0  0  0  0  0  0  0  0  0  0  0
    0.3404   -3.5023   -3.4813 H   0  0  0  0  0  0  0  0  0  0  0  0
   -0.0547   -1.7416   -0.4861 H   0  0  0  0  0  0  0  0  0  0  0  0
   -0.5965   -3.3257   -1.1847 H   0  0  0  0  0  0  0  0  0  0  0  0
   -2.6835   -2.3467   -2.0031 H   0  0  0  0  0  0  0  0  0  0  0  0
   -2.2093   -0.7285   -1.4757 H   0  0  0  0  0  0  0  0  0  0  0  0
   -3.7930   -1.7381   -0.0485 H   0  0  0  0  0  0  0  0  0  0  0  0
   -1.1687   -1.3622    1.3612 H   0  0  0  0  0  0  0  0  0  0  0  0
   -2.7501   -1.4654    2.1668 H   0  0  0  0  0  0  0  0  0  0  0  0
   -3.6489    0.3895    0.8703 H   0  0  0  0  0  0  0  0  0  0  0  0
   -2.0097    0.7124    0.1486 H   0  0  0  0  0  0  0  0  0  0  0  0
   -3.9351    1.9910    2.4049 H   0  0  0  0  0  0  0  0  0  0  0  0
   -2.6147    2.8495    1.4440 H   0  0  0  0  0  0  0  0  0  0  0  0
   -1.3378    3.1770    3.5375 H   0  0  0  0  0  0  0  0  0  0  0  0
   -2.5355    2.1838    4.4355 H   0  0  0  0  0  0  0  0  0  0  0  0
   -4.2569    4.2896    1.4640 H   0  0  0  0  0  0  0  0  0  0  0  0
   -4.3606    6.3367    0.1962 H   0  0  0  0  0  0  0  0  0  0  0  0
   -2.4382    8.4432    3.4566 H   0  0  0  0  0  0  0  0  0  0  0  0
   -2.3230    6.3446    4.7119 H   0  0  0  0  0  0  0  0  0  0  0  0
   -4.2184    8.1186   -0.9233 H   0  0  0  0  0  0  0  0  0  0  0  0
   -2.2799   12.1604    2.8192 H   0  0  0  0  0  0  0  0  0  0  0  0
   -2.2766   14.4156    1.7994 H   0  0  0  0  0  0  0  0  0  0  0  0
   -3.0300   14.7266   -0.5401 H   0  0  0  0  0  0  0  0  0  0  0  0
   -3.7932   12.7961   -1.8712 H   0  0  0  0  0  0  0  0  0  0  0  0
   -1.7985   -3.7882    0.7885 H   0  0  0  0  0  0  0  0  0  0  0  0
   -3.1338   -4.0952   -0.3725 H   0  0  0  0  0  0  0  0  0  0  0  0
   -5.5531   -3.1170    0.4826 H   0  0  0  0  0  0  0  0  0  0  0  0
   -7.1207   -3.4798    2.3561 H   0  0  0  0  0  0  0  0  0  0  0  0
   -3.9534   -4.7160    4.8690 H   0  0  0  0  0  0  0  0  0  0  0  0
   -2.3136   -4.3760    3.0454 H   0  0  0  0  0  0  0  0  0  0  0  0
    3.2402   -4.9775   -5.8011 H   0  0  0  0  0  0  0  0  0  0  0  0
    5.0150   -6.3688   -4.9489 H   0  0  0  0  0  0  0  0  0  0  0  0
  2  1  2  0  0  0  0
  3  2  1  0  0  0  0
  3 55  1  0  0  0  0
  4  3  2  0  0  0  0
  5  4  1  0  0  0  0
  6  5  1  0  0  0  0
  7  6  2  0  0  0  0
  7  2  1  0  0  0  0
  8  7  1  0  0  0  0
  8 56  1  0  0  0  0
  9  8  2  0  0  0  0
  9 57  1  0  0  0  0
 10  9  1  0  0  0  0
 10 58  1  0  0  0  0
 11 10  2  0  0  0  0
 11  6  1  0  0  0  0
 11 59  1  0  0  0  0
 12  4  1  0  0  0  0
 13 12  2  0  0  0  0
 13 60  1  0  0  0  0
 14 13  1  0  0  0  0
 14 61  1  0  0  0  0
 15 14  2  0  0  0  0
 16 15  1  0  0  0  0
 17 16  1  0  0  0  0
 17 62  1  0  0  0  0
 17 63  1  0  0  0  0
 18 17  1  0  0  0  0
 18 64  1  0  0  0  0
 18 65  1  0  0  0  0
 19 18  1  0  0  0  0
 20 19  1  0  0  0  0
 20 66  1  0  0  0  0
 20 67  1  0  0  0  0
 21 20  1  0  0  0  0
 21 68  1  0  0  0  0
 21 69  1  0  0  0  0
 22 21  1  0  0  0  0
 22 70  1  0  0  0  0
 23 22  1  0  0  0  0
 23 71  1  0  0  0  0
 23 72  1  0  0  0  0
 24 23  1  0  0  0  0
 24 73  1  0  0  0  0
 24 74  1  0  0  0  0
 25 24  1  0  0  0  0
 26 25  1  0  0  0  0
 26 75  1  0  0  0  0
 26 76  1  0  0  0  0
 27 26  1  0  0  0  0
 27 77  1  0  0  0  0
 27 78  1  0  0  0  0
 28 27  1  0  0  0  0
 29 28  1  0  0  0  0
 30 29  2  0  0  0  0
 30 79  1  0  0  0  0
 31 30  1  0  0  0  0
 31 80  1  0  0  0  0
 32 31  2  0  0  0  0
 33 32  1  0  0  0  0
 33 81  1  0  0  0  0
 34 33  2  0  0  0  0
 34 29  1  0  0  0  0
 34 82  1  0  0  0  0
 35 32  1  0  0  0  0
 36 35  2  0  0  0  0
 36 83  1  0  0  0  0
 37 36  1  0  0  0  0
 38 37  2  0  0  0  0
 39 37  1  0  0  0  0
 40 39  2  0  0  0  0
 41 40  1  0  0  0  0
 41 35  1  0  0  0  0
 42 40  1  0  0  0  0
 42 84  1  0  0  0  0
 43 42  2  0  0  0  0
 43 85  1  0  0  0  0
 44 43  1  0  0  0  0
 44 86  1  0  0  0  0
 45 44  2  0  0  0  0
 45 39  1  0  0  0  0
 45 87  1  0  0  0  0
 46 22  1  0  0  0  0
 46 88  1  0  0  0  0
 46 89  1  0  0  0  0
 47 46  1  0  0  0  0
 48 47  2  0  0  0  0
 48 90  1  0  0  0  0
 49 48  1  0  0  0  0
 49 91  1  0  0  0  0
 50 49  2  0  0  0  0
 51 50  1  0  0  0  0
 51 92  1  0  0  0  0
 52 51  2  0  0  0  0
 52 47  1  0  0  0  0
 52 93  1  0  0  0  0
 53 15  1  0  0  0  0
 53 94  1  0  0  0  0
 54 53  2  0  0  0  0
 54 12  1  0  0  0  0
 54 95  1  0  0  0  0
M  CHG  1  22   1
M  END
>  <MOL Chiral Flag>
0

>  <energy>
230.45797373948614

$$$$
