>504.sdf
 OpenBabel10062214513D

 47 49  0  0  0  0  0  0  0  0999 V2000
    1.5879   -1.3844   -0.3392 H   0  0  0  0  0  0  0  0  0  0  0  0
    1.7448   -0.2741   -0.4248 C   0  0  2  0  0  0  0  0  0  0  0  0
    0.6380    0.1178   -1.4128 C   0  0  0  0  0  0  0  0  0  0  0  0
   -0.5419   -0.0120   -0.4895 C   0  0  0  0  0  0  0  0  0  0  0  0
   -0.1947    0.0205    0.7925 C   0  0  0  0  0  0  0  0  0  0  0  0
   -1.2228    0.0049    1.8516 C   0  0  0  0  0  0  0  0  0  0  0  0
   -0.8932    0.0677    3.0254 O   0  0  0  0  0  0  0  0  0  0  0  0
   -2.6664   -0.0628    1.4773 C   0  0  0  0  0  0  0  0  0  0  0  0
   -3.9159   -0.0771    2.9491 Br  0  0  0  0  0  0  0  0  0  0  0  0
   -3.0370   -0.0917    0.1519 C   0  0  0  0  0  0  0  0  0  0  0  0
   -4.4994   -0.1236   -0.3267 C   0  0  0  0  0  0  0  0  0  0  0  0
   -5.2440   -1.3984    0.0931 C   0  0  0  0  0  0  0  0  0  0  0  0
   -5.2660    1.1507    0.0571 C   0  0  0  0  0  0  0  0  0  0  0  0
   -1.9570   -0.0686   -0.8983 C   0  0  0  0  0  0  0  0  0  0  0  0
   -2.2359   -0.0782   -2.0873 O   0  0  0  0  0  0  0  0  0  0  0  0
    1.2812    0.2771    0.9544 C   0  0  2  0  0  0  0  0  0  0  0  0
    1.3846    1.8077    1.2091 C   0  0  0  0  0  0  0  0  0  0  0  0
    2.0609   -0.5063    2.0362 C   0  0  0  0  0  0  0  0  0  0  0  0
    3.5910   -0.3250    1.8178 C   0  0  0  0  0  0  0  0  0  0  0  0
    4.0292   -0.8305    0.4191 C   0  0  0  0  0  0  0  0  0  0  0  0
    3.2599   -0.1667   -0.7706 C   0  0  0  0  0  0  0  0  0  0  0  0
    3.5520   -0.9756   -2.0566 C   0  0  0  0  0  0  0  0  0  0  0  0
    3.7478    1.2747   -1.0375 C   0  0  0  0  0  0  0  0  0  0  0  0
    0.6159   -0.6002   -2.2609 H   0  0  0  0  0  0  0  0  0  0  0  0
    0.7064    1.1647   -1.7760 H   0  0  0  0  0  0  0  0  0  0  0  0
   -4.5092   -0.1392   -1.4370 H   0  0  0  0  0  0  0  0  0  0  0  0
   -5.3709   -1.4863    1.1860 H   0  0  0  0  0  0  0  0  0  0  0  0
   -6.2582   -1.4065   -0.3610 H   0  0  0  0  0  0  0  0  0  0  0  0
   -4.6958   -2.2920   -0.2736 H   0  0  0  0  0  0  0  0  0  0  0  0
   -5.3907    1.2689    1.1477 H   0  0  0  0  0  0  0  0  0  0  0  0
   -4.7304    2.0424   -0.3340 H   0  0  0  0  0  0  0  0  0  0  0  0
   -6.2802    1.1335   -0.3956 H   0  0  0  0  0  0  0  0  0  0  0  0
    0.9216    2.3883    0.3824 H   0  0  0  0  0  0  0  0  0  0  0  0
    2.3969    2.1925    1.3783 H   0  0  0  0  0  0  0  0  0  0  0  0
    0.8420    2.0625    2.1451 H   0  0  0  0  0  0  0  0  0  0  0  0
    1.8249   -1.5914    1.9655 H   0  0  0  0  0  0  0  0  0  0  0  0
    1.7714   -0.1676    3.0538 H   0  0  0  0  0  0  0  0  0  0  0  0
    3.8911    0.7328    1.9425 H   0  0  0  0  0  0  0  0  0  0  0  0
    4.1366   -0.9032    2.5940 H   0  0  0  0  0  0  0  0  0  0  0  0
    3.8142   -1.9229    0.4140 H   0  0  0  0  0  0  0  0  0  0  0  0
    5.1274   -0.7151    0.2888 H   0  0  0  0  0  0  0  0  0  0  0  0
    4.6392   -0.9674   -2.2888 H   0  0  0  0  0  0  0  0  0  0  0  0
    3.0100   -0.5473   -2.9268 H   0  0  0  0  0  0  0  0  0  0  0  0
    3.2386   -2.0359   -1.9433 H   0  0  0  0  0  0  0  0  0  0  0  0
    3.7111    1.9345   -0.1667 H   0  0  0  0  0  0  0  0  0  0  0  0
    4.8166    1.2632   -1.3416 H   0  0  0  0  0  0  0  0  0  0  0  0
    3.1627    1.7384   -1.8602 H   0  0  0  0  0  0  0  0  0  0  0  0
  2  1  1  1  0  0  0
  3  2  1  0  0  0  0
  3 24  1  0  0  0  0
  3 25  1  0  0  0  0
  4  3  1  0  0  0  0
  5  4  2  0  0  0  0
  6  5  1  0  0  0  0
  7  6  2  0  0  0  0
  8  6  1  0  0  0  0
  9  8  1  0  0  0  0
 10  8  2  0  0  0  0
 11 10  1  0  0  0  0
 11 26  1  0  0  0  0
 12 11  1  0  0  0  0
 12 27  1  0  0  0  0
 12 28  1  0  0  0  0
 12 29  1  0  0  0  0
 13 11  1  0  0  0  0
 13 30  1  0  0  0  0
 13 31  1  0  0  0  0
 13 32  1  0  0  0  0
 14 10  1  0  0  0  0
 14  4  1  0  0  0  0
 15 14  2  0  0  0  0
 16  5  1  0  0  0  0
 16  2  1  0  0  0  0
 16 17  1  1  0  0  0
 17 33  1  0  0  0  0
 17 34  1  0  0  0  0
 17 35  1  0  0  0  0
 18 16  1  0  0  0  0
 18 36  1  0  0  0  0
 18 37  1  0  0  0  0
 19 18  1  0  0  0  0
 19 38  1  0  0  0  0
 19 39  1  0  0  0  0
 20 19  1  0  0  0  0
 20 40  1  0  0  0  0
 20 41  1  0  0  0  0
 21 20  1  0  0  0  0
 21  2  1  0  0  0  0
 22 21  1  0  0  0  0
 22 42  1  0  0  0  0
 22 43  1  0  0  0  0
 22 44  1  0  0  0  0
 23 21  1  0  0  0  0
 23 45  1  0  0  0  0
 23 46  1  0  0  0  0
 23 47  1  0  0  0  0
M  END
>  <MOL Chiral Flag>
0

>  <energy>
84.471977398432216

$$$$
