>505.sdf
 OpenBabel10062214513D

 71 74  0  0  0  0  0  0  0  0999 V2000
    2.9710   -1.2087   -4.3280 C   0  0  0  0  0  0  0  0  0  0  0  0
    3.1636   -0.7600   -3.0371 O   0  0  0  0  0  0  0  0  0  0  0  0
    2.3346   -1.0851   -2.0073 C   0  0  0  0  0  0  0  0  0  0  0  0
    1.3387   -1.7520   -2.2209 O   0  0  0  0  0  0  0  0  0  0  0  0
    2.6692   -0.6402   -0.6196 C   0  0  0  0  0  0  0  0  0  0  0  0
    3.8058    0.0561   -0.3899 C   0  0  0  0  0  0  0  0  0  0  0  0
    4.1963    0.3798    0.8832 O   0  0  0  0  0  0  0  0  0  0  0  0
    3.6849   -0.1730    2.0732 C   0  0  1  0  0  0  0  0  0  0  0  0
    2.9920    0.7907    2.8497 O   0  0  0  0  0  0  0  0  0  0  0  0
    3.5899    2.0737    2.8378 C   0  0  1  0  0  0  0  0  0  0  0  0
    2.7318    2.9102    2.0873 O   0  0  0  0  0  0  0  0  0  0  0  0
    3.2653    4.2108    1.9392 C   0  0  1  0  0  0  0  0  0  0  0  0
    2.3271    4.9622    0.9877 C   0  0  0  0  0  0  0  0  0  0  0  0
    2.8364    6.2293    0.6811 O   0  0  0  0  0  0  0  0  0  0  0  0
    3.3740    4.8933    3.3280 C   0  0  2  0  0  0  0  0  0  0  0  0
    3.9338    6.1773    3.2164 O   0  0  0  0  0  0  0  0  0  0  0  0
    4.2667    4.0334    4.2359 C   0  0  1  0  0  0  0  0  0  0  0  0
    4.3009    4.5824    5.5299 O   0  0  0  0  0  0  0  0  0  0  0  0
    3.7187    2.5972    4.2807 C   0  0  2  0  0  0  0  0  0  0  0  0
    4.6002    1.7785    5.0096 O   0  0  0  0  0  0  0  0  0  0  0  0
    2.7433   -1.3514    1.7298 C   0  0  1  0  0  0  0  0  0  0  0  0
    1.8423   -2.0640    2.7839 C   0  0  1  0  0  0  0  0  0  0  0  0
    1.8158   -1.5039    4.2111 C   0  0  0  0  0  0  0  0  0  0  0  0
    0.4475   -2.1437    2.1118 C   0  0  1  0  0  0  0  0  0  0  0  0
   -0.3102   -1.0014    2.4414 O   0  0  0  0  0  0  0  0  0  0  0  0
    0.8098   -2.1066    0.6178 C   0  0  1  0  0  0  0  0  0  0  0  0
   -0.2902   -1.9073   -0.2016 O   0  0  0  0  0  0  0  0  0  0  0  0
   -1.0028   -2.9480   -0.7112 C   0  0  0  0  0  0  0  0  0  0  0  0
   -0.8580   -4.0541   -0.2361 O   0  0  0  0  0  0  0  0  0  0  0  0
   -1.8548   -2.7034   -1.9048 C   0  0  0  0  0  0  0  0  0  0  0  0
   -2.4816   -3.5454   -2.7772 C   0  0  0  0  0  0  0  0  0  0  0  0
   -2.6053   -5.0480   -2.9182 C   0  0  0  0  0  0  0  0  0  0  0  0
   -2.2287   -6.0208   -1.9632 C   0  0  0  0  0  0  0  0  0  0  0  0
   -2.3828   -7.3854   -2.2258 C   0  0  0  0  0  0  0  0  0  0  0  0
   -2.9216   -7.8183   -3.4386 C   0  0  0  0  0  0  0  0  0  0  0  0
   -3.0713   -9.1338   -3.6952 O   0  0  0  0  0  0  0  0  0  0  0  0
   -3.3121   -6.8787   -4.3891 C   0  0  0  0  0  0  0  0  0  0  0  0
   -3.1590   -5.5130   -4.1335 C   0  0  0  0  0  0  0  0  0  0  0  0
    1.8084   -0.9460    0.5991 C   0  0  2  0  0  0  0  0  0  0  0  0
    3.7626   -0.7895   -4.9820 H   0  0  0  0  0  0  0  0  0  0  0  0
    3.0339   -2.3179   -4.3580 H   0  0  0  0  0  0  0  0  0  0  0  0
    1.9801   -0.8805   -4.7092 H   0  0  0  0  0  0  0  0  0  0  0  0
    4.4524    0.3417   -1.2139 H   0  0  0  0  0  0  0  0  0  0  0  0
    4.5193   -0.5751    2.6877 H   0  0  0  0  0  0  0  0  0  0  0  0
    4.6222    2.0693    2.4061 H   0  0  0  0  0  0  0  0  0  0  0  0
    4.2646    4.1580    1.4462 H   0  0  0  0  0  0  0  0  0  0  0  0
    1.3190    5.0550    1.4508 H   0  0  0  0  0  0  0  0  0  0  0  0
    2.2453    4.3629    0.0511 H   0  0  0  0  0  0  0  0  0  0  0  0
    2.2787    6.5743   -0.0639 H   0  0  0  0  0  0  0  0  0  0  0  0
    2.3590    4.9419    3.7940 H   0  0  0  0  0  0  0  0  0  0  0  0
    3.1828    6.8264    3.2185 H   0  0  0  0  0  0  0  0  0  0  0  0
    5.2917    4.0147    3.7867 H   0  0  0  0  0  0  0  0  0  0  0  0
    5.2514    4.6153    5.8157 H   0  0  0  0  0  0  0  0  0  0  0  0
    2.7029    2.6131    4.7466 H   0  0  0  0  0  0  0  0  0  0  0  0
    4.0906    1.3794    5.7618 H   0  0  0  0  0  0  0  0  0  0  0  0
    3.3906   -2.1579    1.3014 H   0  0  0  0  0  0  0  0  0  0  0  0
    2.2349   -3.1051    2.8539 H   0  0  0  0  0  0  0  0  0  0  0  0
    1.1726   -2.1456    4.8497 H   0  0  0  0  0  0  0  0  0  0  0  0
    1.4078   -0.4731    4.2399 H   0  0  0  0  0  0  0  0  0  0  0  0
    2.8421   -1.5005    4.6343 H   0  0  0  0  0  0  0  0  0  0  0  0
   -0.1148   -3.0484    2.4376 H   0  0  0  0  0  0  0  0  0  0  0  0
   -1.2314   -1.1579    2.1062 H   0  0  0  0  0  0  0  0  0  0  0  0
    1.3526   -3.0395    0.3267 H   0  0  0  0  0  0  0  0  0  0  0  0
   -1.9457   -1.6478   -2.1525 H   0  0  0  0  0  0  0  0  0  0  0  0
   -2.9751   -3.0081   -3.5849 H   0  0  0  0  0  0  0  0  0  0  0  0
   -1.8375   -5.7857   -1.0140 H   0  0  0  0  0  0  0  0  0  0  0  0
   -2.0834   -8.1086   -1.4769 H   0  0  0  0  0  0  0  0  0  0  0  0
   -2.8096   -9.8101   -3.0536 H   0  0  0  0  0  0  0  0  0  0  0  0
   -3.7342   -7.2056   -5.3310 H   0  0  0  0  0  0  0  0  0  0  0  0
   -3.4687   -4.8112   -4.8985 H   0  0  0  0  0  0  0  0  0  0  0  0
    1.2905   -0.0013    0.8898 H   0  0  0  0  0  0  0  0  0  0  0  0
  1 40  1  0  0  0  0
  1 41  1  0  0  0  0
  1 42  1  0  0  0  0
  2  1  1  0  0  0  0
  3  2  1  0  0  0  0
  4  3  2  0  0  0  0
  5  3  1  0  0  0  0
  6  5  2  0  0  0  0
  6 43  1  0  0  0  0
  7  6  1  0  0  0  0
  8  7  1  0  0  0  0
  8 44  1  1  0  0  0
  9  8  1  0  0  0  0
 10  9  1  0  0  0  0
 10 45  1  6  0  0  0
 11 10  1  0  0  0  0
 12 11  1  0  0  0  0
 12 46  1  6  0  0  0
 13 12  1  0  0  0  0
 13 47  1  0  0  0  0
 13 48  1  0  0  0  0
 14 13  1  0  0  0  0
 14 49  1  0  0  0  0
 15 12  1  0  0  0  0
 15 50  1  1  0  0  0
 16 15  1  0  0  0  0
 16 51  1  0  0  0  0
 17 15  1  0  0  0  0
 17 52  1  6  0  0  0
 18 17  1  0  0  0  0
 18 53  1  0  0  0  0
 19 17  1  0  0  0  0
 19 10  1  0  0  0  0
 19 54  1  1  0  0  0
 20 19  1  0  0  0  0
 20 55  1  0  0  0  0
 21  8  1  0  0  0  0
 21 56  1  6  0  0  0
 22 21  1  0  0  0  0
 22 57  1  1  0  0  0
 23 22  1  0  0  0  0
 23 58  1  0  0  0  0
 23 59  1  0  0  0  0
 23 60  1  0  0  0  0
 24 22  1  0  0  0  0
 24 61  1  1  0  0  0
 25 24  1  0  0  0  0
 25 62  1  0  0  0  0
 26 24  1  0  0  0  0
 26 63  1  6  0  0  0
 27 26  1  0  0  0  0
 28 27  1  0  0  0  0
 29 28  2  0  0  0  0
 30 28  1  0  0  0  0
 30 64  1  0  0  0  0
 31 30  2  0  0  0  0
 31 65  1  0  0  0  0
 32 31  1  0  0  0  0
 33 32  2  0  0  0  0
 33 66  1  0  0  0  0
 34 33  1  0  0  0  0
 34 67  1  0  0  0  0
 35 34  2  0  0  0  0
 36 35  1  0  0  0  0
 36 68  1  0  0  0  0
 37 35  1  0  0  0  0
 37 69  1  0  0  0  0
 38 37  2  0  0  0  0
 38 32  1  0  0  0  0
 38 70  1  0  0  0  0
 39 26  1  0  0  0  0
 39  5  1  0  0  0  0
 39 21  1  0  0  0  0
 39 71  1  1  0  0  0
M  END
>  <MOL Chiral Flag>
0

>  <energy>
136.27686237207746

$$$$
