>508.sdf
 OpenBabel10062214533D

 30 33  0  0  0  0  0  0  0  0999 V2000
    0.2585    0.5300    2.1854 C   0  0  0  0  0  0  0  0  0  0  0  0
    0.5031    0.1518    0.7811 N   0  0  0  0  0  0  0  0  0  0  0  0
   -0.5812   -0.0200   -0.0537 C   0  0  0  0  0  0  0  0  0  0  0  0
   -1.9561    0.1164    0.1534 C   0  0  0  0  0  0  0  0  0  0  0  0
   -2.7522    0.4740    1.2541 C   0  0  0  0  0  0  0  0  0  0  0  0
   -4.1493    0.5316    1.0825 C   0  0  0  0  0  0  0  0  0  0  0  0
   -5.2660    1.0364    2.5473 Br  0  0  0  0  0  0  0  0  0  0  0  0
   -4.7306    0.2271   -0.1667 C   0  0  0  0  0  0  0  0  0  0  0  0
   -3.9219   -0.1349   -1.2535 C   0  0  0  0  0  0  0  0  0  0  0  0
   -2.5453   -0.1777   -1.0634 C   0  0  0  0  0  0  0  0  0  0  0  0
   -1.6270   -0.4853   -2.0004 N   0  0  0  0  0  0  0  0  0  0  0  0
   -0.4374   -0.3798   -1.3740 C   0  0  0  0  0  0  0  0  0  0  0  0
    0.7964   -0.5807   -1.9443 C   0  0  0  0  0  0  0  0  0  0  0  0
    1.9272   -0.4039   -1.1407 C   0  0  0  0  0  0  0  0  0  0  0  0
    1.7819   -0.0365    0.2426 C   0  0  0  0  0  0  0  0  0  0  0  0
    2.9748    0.1256    1.0010 C   0  0  0  0  0  0  0  0  0  0  0  0
    4.2297   -0.0579    0.4114 C   0  0  0  0  0  0  0  0  0  0  0  0
    4.3417   -0.4072   -0.9317 C   0  0  0  0  0  0  0  0  0  0  0  0
    6.0660   -0.6421   -1.7198 Br  0  0  0  0  0  0  0  0  0  0  0  0
    3.1982   -0.5829   -1.7035 C   0  0  0  0  0  0  0  0  0  0  0  0
   -0.3359   -0.2656    2.6834 H   0  0  0  0  0  0  0  0  0  0  0  0
   -0.2777    1.5005    2.2192 H   0  0  0  0  0  0  0  0  0  0  0  0
    1.1470    0.6712    2.8111 H   0  0  0  0  0  0  0  0  0  0  0  0
   -2.3396    0.7137    2.2177 H   0  0  0  0  0  0  0  0  0  0  0  0
   -5.8045    0.2758   -0.2916 H   0  0  0  0  0  0  0  0  0  0  0  0
   -4.3575   -0.3668   -2.2169 H   0  0  0  0  0  0  0  0  0  0  0  0
    0.8794   -0.8565   -2.9891 H   0  0  0  0  0  0  0  0  0  0  0  0
    2.9810    0.3955    2.0388 H   0  0  0  0  0  0  0  0  0  0  0  0
    5.1244    0.0765    1.0063 H   0  0  0  0  0  0  0  0  0  0  0  0
    3.3003   -0.8545   -2.7479 H   0  0  0  0  0  0  0  0  0  0  0  0
  1 21  1  0  0  0  0
  1 22  1  0  0  0  0
  1 23  1  0  0  0  0
  2  1  1  0  0  0  0
  3  2  1  0  0  0  0
  4  3  2  0  0  0  0
  5  4  1  0  0  0  0
  5 24  1  0  0  0  0
  6  5  2  0  0  0  0
  7  6  1  0  0  0  0
  8  6  1  0  0  0  0
  8 25  1  0  0  0  0
  9  8  2  0  0  0  0
  9 26  1  0  0  0  0
 10  9  1  0  0  0  0
 10  4  1  0  0  0  0
 11 10  2  0  0  0  0
 12 11  1  0  0  0  0
 12  3  1  0  0  0  0
 13 12  2  0  0  0  0
 13 27  1  0  0  0  0
 14 13  1  0  0  0  0
 15 14  2  0  0  0  0
 15  2  1  0  0  0  0
 16 15  1  0  0  0  0
 16 28  1  0  0  0  0
 17 16  2  0  0  0  0
 17 29  1  0  0  0  0
 18 17  1  0  0  0  0
 19 18  1  0  0  0  0
 20 18  2  0  0  0  0
 20 14  1  0  0  0  0
 20 30  1  0  0  0  0
M  END
>  <MOL Chiral Flag>
0

>  <energy>
57.842231512145617

$$$$
