>510.sdf
 OpenBabel10062214543D

 46 46  0  0  0  0  0  0  0  0999 V2000
    3.1624   -1.0376    3.3912 C   0  0  0  0  0  0  0  0  0  0  0  0
    3.0620    0.3095    3.1129 O   0  0  0  0  0  0  0  0  0  0  0  0
    2.6815    0.8459    1.9227 C   0  0  0  0  0  0  0  0  0  0  0  0
    2.3453    0.0535    0.8029 C   0  0  0  0  0  0  0  0  0  0  0  0
    1.9861    0.6573   -0.4172 C   0  0  0  0  0  0  0  0  0  0  0  0
    1.6998   -0.2082   -1.6240 C   0  0  0  0  0  0  0  0  0  0  0  0
    0.2680   -0.7012   -1.6634 C   0  0  0  0  0  0  0  0  0  0  0  0
   -0.1407   -1.9960   -1.6858 C   0  0  0  0  0  0  0  0  0  0  0  0
    0.8234   -3.1673   -1.5849 C   0  0  0  0  0  0  0  0  0  0  0  0
   -1.6404   -2.2603   -1.8359 C   0  0  0  0  0  0  0  0  0  0  0  0
   -2.0166   -3.7518   -1.8423 C   0  0  0  0  0  0  0  0  0  0  0  0
   -3.4964   -3.9960   -2.0030 C   0  0  0  0  0  0  0  0  0  0  0  0
   -4.0337   -5.2415   -1.9751 C   0  0  0  0  0  0  0  0  0  0  0  0
   -3.1993   -6.4899   -1.7815 C   0  0  0  0  0  0  0  0  0  0  0  0
   -5.5203   -5.4248   -2.1279 C   0  0  0  0  0  0  0  0  0  0  0  0
    1.9415    2.0648   -0.5156 C   0  0  0  0  0  0  0  0  0  0  0  0
    1.5722    2.6337   -1.6955 O   0  0  0  0  0  0  0  0  0  0  0  0
    1.4143    3.9854   -1.9189 C   0  0  0  0  0  0  0  0  0  0  0  0
    2.2678    2.8452    0.6122 C   0  0  0  0  0  0  0  0  0  0  0  0
    2.6380    2.2373    1.8108 C   0  0  0  0  0  0  0  0  0  0  0  0
    3.5137   -1.1627    4.4366 H   0  0  0  0  0  0  0  0  0  0  0  0
    2.1695   -1.5242    3.2913 H   0  0  0  0  0  0  0  0  0  0  0  0
    3.9003   -1.5190    2.7147 H   0  0  0  0  0  0  0  0  0  0  0  0
    2.3843   -1.0265    0.8649 H   0  0  0  0  0  0  0  0  0  0  0  0
    2.4964   -0.9671   -1.6995 H   0  0  0  0  0  0  0  0  0  0  0  0
    1.8224    0.3861   -2.5526 H   0  0  0  0  0  0  0  0  0  0  0  0
   -0.4936    0.0734   -1.7247 H   0  0  0  0  0  0  0  0  0  0  0  0
    1.8825   -2.9097   -1.4432 H   0  0  0  0  0  0  0  0  0  0  0  0
    0.7602   -3.7841   -2.5045 H   0  0  0  0  0  0  0  0  0  0  0  0
    0.5516   -3.7891   -0.7076 H   0  0  0  0  0  0  0  0  0  0  0  0
   -2.1794   -1.7635   -0.9995 H   0  0  0  0  0  0  0  0  0  0  0  0
   -1.9813   -1.8049   -2.7931 H   0  0  0  0  0  0  0  0  0  0  0  0
   -1.7035   -4.1874   -0.8708 H   0  0  0  0  0  0  0  0  0  0  0  0
   -1.4951   -4.2590   -2.6825 H   0  0  0  0  0  0  0  0  0  0  0  0
   -4.1509   -3.1377   -2.1367 H   0  0  0  0  0  0  0  0  0  0  0  0
   -2.1119   -6.3047   -1.6852 H   0  0  0  0  0  0  0  0  0  0  0  0
   -3.5316   -7.0105   -0.8593 H   0  0  0  0  0  0  0  0  0  0  0  0
   -3.3439   -7.1681   -2.6478 H   0  0  0  0  0  0  0  0  0  0  0  0
   -5.9244   -5.9174   -1.2184 H   0  0  0  0  0  0  0  0  0  0  0  0
   -5.7250   -6.0732   -3.0060 H   0  0  0  0  0  0  0  0  0  0  0  0
   -6.0552   -4.4622   -2.2714 H   0  0  0  0  0  0  0  0  0  0  0  0
    0.6329    4.3957   -1.2436 H   0  0  0  0  0  0  0  0  0  0  0  0
    1.0874    4.1400   -2.9674 H   0  0  0  0  0  0  0  0  0  0  0  0
    2.3765    4.5174   -1.7649 H   0  0  0  0  0  0  0  0  0  0  0  0
    2.2445    3.9253    0.5675 H   0  0  0  0  0  0  0  0  0  0  0  0
    2.8970    2.8542    2.6628 H   0  0  0  0  0  0  0  0  0  0  0  0
  1 21  1  0  0  0  0
  1 22  1  0  0  0  0
  1 23  1  0  0  0  0
  2  1  1  0  0  0  0
  3  2  1  0  0  0  0
  4  3  2  0  0  0  0
  4 24  1  0  0  0  0
  5  4  1  0  0  0  0
  6  5  1  0  0  0  0
  6 25  1  0  0  0  0
  6 26  1  0  0  0  0
  7  6  1  0  0  0  0
  7 27  1  0  0  0  0
  8  7  2  0  0  0  0
  9  8  1  0  0  0  0
  9 28  1  0  0  0  0
  9 29  1  0  0  0  0
  9 30  1  0  0  0  0
 10  8  1  0  0  0  0
 10 31  1  0  0  0  0
 10 32  1  0  0  0  0
 11 10  1  0  0  0  0
 11 33  1  0  0  0  0
 11 34  1  0  0  0  0
 12 11  1  0  0  0  0
 12 35  1  0  0  0  0
 13 12  2  0  0  0  0
 14 13  1  0  0  0  0
 14 36  1  0  0  0  0
 14 37  1  0  0  0  0
 14 38  1  0  0  0  0
 15 13  1  0  0  0  0
 15 39  1  0  0  0  0
 15 40  1  0  0  0  0
 15 41  1  0  0  0  0
 16  5  2  0  0  0  0
 17 16  1  0  0  0  0
 18 17  1  0  0  0  0
 18 42  1  0  0  0  0
 18 43  1  0  0  0  0
 18 44  1  0  0  0  0
 19 16  1  0  0  0  0
 19 45  1  0  0  0  0
 20 19  2  0  0  0  0
 20  3  1  0  0  0  0
 20 46  1  0  0  0  0
M  END
>  <MOL Chiral Flag>
0

>  <energy>
60.401407488680313

$$$$
