>514.sdf
 OpenBabel10062215003D

 81 84  0  0  0  0  0  0  0  0999 V2000
    1.8456    5.3499    0.3335 H   0  0  0  0  0  0  0  0  0  0  0  0
    2.2771    4.5575   -0.2601 C   0  0  0  0  0  0  0  0  0  0  0  0
    2.0469    3.2388    0.1314 C   0  0  0  0  0  0  0  0  0  0  0  0
    2.5851    2.1584   -0.5964 C   0  0  0  0  0  0  0  0  0  0  0  0
    2.3666    0.6973   -0.1653 C   0  0  0  0  0  0  0  0  0  0  0  0
    1.5386    0.4973    1.1597 C   0  0  0  0  0  0  0  0  0  0  0  0
    1.6732   -0.8927    1.8593 C   0  0  1  0  0  0  0  0  0  0  0  0
    1.0280   -2.0801    1.0604 C   0  0  0  0  0  0  0  0  0  0  0  0
   -0.4771   -2.3832    1.3117 C   0  0  2  0  0  0  0  0  0  0  0  0
   -0.9656   -3.4973    0.3389 C   0  0  0  0  0  0  0  0  0  0  0  0
   -2.4687   -3.8044    0.5060 C   0  0  0  0  0  0  0  0  0  0  0  0
   -3.0347   -5.0355   -0.1904 C   0  0  0  0  0  0  0  0  0  0  0  0
   -4.4102   -5.2789   -0.0525 C   0  0  0  0  0  0  0  0  0  0  0  0
   -5.0095   -6.4266   -0.6101 C   0  0  0  0  0  0  0  0  0  0  0  0
   -6.3396   -6.6821   -0.4732 O   0  0  0  0  0  0  0  0  0  0  0  0
   -7.2401   -5.8846    0.2031 C   0  0  0  0  0  0  0  0  0  0  0  0
   -4.2217   -7.3503   -1.3097 C   0  0  0  0  0  0  0  0  0  0  0  0
   -4.8258   -8.4694   -1.7979 O   0  0  0  0  0  0  0  0  0  0  0  0
   -4.1870   -9.5549   -2.3610 C   0  0  0  0  0  0  0  0  0  0  0  0
   -2.8413   -7.1032   -1.4706 C   0  0  0  0  0  0  0  0  0  0  0  0
   -2.2537   -5.9528   -0.9214 C   0  0  0  0  0  0  0  0  0  0  0  0
   -1.2943   -1.2574    1.2501 O   0  0  0  0  0  0  0  0  0  0  0  0
   -2.2066   -0.9600    2.2335 C   0  0  0  0  0  0  0  0  0  0  0  0
   -2.3981   -1.7461    3.1570 O   0  0  0  0  0  0  0  0  0  0  0  0
   -3.0074    0.2852    2.1905 C   0  0  0  0  0  0  0  0  0  0  0  0
   -2.8105    1.2259    1.1682 C   0  0  0  0  0  0  0  0  0  0  0  0
   -3.5657    2.4033    1.1422 C   0  0  0  0  0  0  0  0  0  0  0  0
   -4.5235    2.6500    2.1316 C   0  0  0  0  0  0  0  0  0  0  0  0
   -5.5481    4.2609    2.0935 Br  0  0  0  0  0  0  0  0  0  0  0  0
   -4.7302    1.7170    3.1503 C   0  0  0  0  0  0  0  0  0  0  0  0
   -3.9777    0.5412    3.1826 C   0  0  0  0  0  0  0  0  0  0  0  0
    3.0423   -1.0484    2.0323 O   0  0  0  0  0  0  0  0  0  0  0  0
    3.7307   -2.1998    2.2118 C   0  0  0  0  0  0  0  0  0  0  0  0
    3.2598   -3.1260    2.8583 O   0  0  0  0  0  0  0  0  0  0  0  0
    4.9571   -2.3741    1.4151 C   0  0  0  0  0  0  0  0  0  0  0  0
    5.6063   -1.2448    0.8840 C   0  0  0  0  0  0  0  0  0  0  0  0
    6.7187   -1.3946    0.0582 C   0  0  0  0  0  0  0  0  0  0  0  0
    7.1874   -2.6723   -0.2559 C   0  0  0  0  0  0  0  0  0  0  0  0
    8.6892   -2.8748   -1.4150 Br  0  0  0  0  0  0  0  0  0  0  0  0
    6.5498   -3.8010    0.2720 C   0  0  0  0  0  0  0  0  0  0  0  0
    5.4423   -3.6545    1.1123 C   0  0  0  0  0  0  0  0  0  0  0  0
    3.3746    2.4509   -1.7341 C   0  0  0  0  0  0  0  0  0  0  0  0
    3.6061    3.7835   -2.1239 C   0  0  0  0  0  0  0  0  0  0  0  0
    3.0535    4.8451   -1.3953 C   0  0  0  0  0  0  0  0  0  0  0  0
    3.2756    6.1236   -1.8109 O   0  0  0  0  0  0  0  0  0  0  0  0
    2.6174    7.2381   -1.3200 C   0  0  0  0  0  0  0  0  0  0  0  0
    1.4449    3.0821    1.0089 H   0  0  0  0  0  0  0  0  0  0  0  0
    1.8981    0.1264   -0.9964 H   0  0  0  0  0  0  0  0  0  0  0  0
    3.3836    0.2841   -0.0254 H   0  0  0  0  0  0  0  0  0  0  0  0
    0.4807    0.7769    0.9834 H   0  0  0  0  0  0  0  0  0  0  0  0
    1.9772    1.1930    1.9048 H   0  0  0  0  0  0  0  0  0  0  0  0
    1.1983   -0.8492    2.8646 H   0  0  0  0  0  0  0  0  0  0  0  0
    1.2778   -1.9763   -0.0121 H   0  0  0  0  0  0  0  0  0  0  0  0
    1.4810   -3.0379    1.3790 H   0  0  0  0  0  0  0  0  0  0  0  0
   -0.5336   -2.8192    2.3376 H   0  0  0  0  0  0  0  0  0  0  0  0
   -0.7831   -3.2011   -0.7171 H   0  0  0  0  0  0  0  0  0  0  0  0
   -0.3707   -4.4090    0.5646 H   0  0  0  0  0  0  0  0  0  0  0  0
   -3.0350   -2.9124    0.1583 H   0  0  0  0  0  0  0  0  0  0  0  0
   -2.6740   -3.9526    1.5871 H   0  0  0  0  0  0  0  0  0  0  0  0
   -5.0080   -4.5708    0.5052 H   0  0  0  0  0  0  0  0  0  0  0  0
   -7.2887   -4.8773   -0.2630 H   0  0  0  0  0  0  0  0  0  0  0  0
   -8.2465   -6.3473    0.1476 H   0  0  0  0  0  0  0  0  0  0  0  0
   -6.9498   -5.8006    1.2721 H   0  0  0  0  0  0  0  0  0  0  0  0
   -3.6365   -9.2565   -3.2767 H   0  0  0  0  0  0  0  0  0  0  0  0
   -3.4954  -10.0150   -1.6228 H   0  0  0  0  0  0  0  0  0  0  0  0
   -4.9489  -10.3134   -2.6394 H   0  0  0  0  0  0  0  0  0  0  0  0
   -2.2157   -7.8021   -2.0101 H   0  0  0  0  0  0  0  0  0  0  0  0
   -1.1918   -5.8020   -1.0533 H   0  0  0  0  0  0  0  0  0  0  0  0
   -2.0731    1.0506    0.3968 H   0  0  0  0  0  0  0  0  0  0  0  0
   -3.4048    3.1250    0.3531 H   0  0  0  0  0  0  0  0  0  0  0  0
   -5.4719    1.9031    3.9177 H   0  0  0  0  0  0  0  0  0  0  0  0
   -4.1545   -0.1686    3.9832 H   0  0  0  0  0  0  0  0  0  0  0  0
    5.2526   -0.2467    1.1101 H   0  0  0  0  0  0  0  0  0  0  0  0
    7.2072   -0.5169   -0.3458 H   0  0  0  0  0  0  0  0  0  0  0  0
    6.9030   -4.7913    0.0204 H   0  0  0  0  0  0  0  0  0  0  0  0
    4.9418   -4.5361    1.4925 H   0  0  0  0  0  0  0  0  0  0  0  0
    3.8157    1.6521   -2.3192 H   0  0  0  0  0  0  0  0  0  0  0  0
    4.2111    3.9946   -2.9998 H   0  0  0  0  0  0  0  0  0  0  0  0
    2.7916    7.3614   -0.2298 H   0  0  0  0  0  0  0  0  0  0  0  0
    1.5274    7.1475   -1.5209 H   0  0  0  0  0  0  0  0  0  0  0  0
    2.9909    8.1476   -1.8337 H   0  0  0  0  0  0  0  0  0  0  0  0
  2  1  1  0  0  0  0
  3  2  2  0  0  0  0
  3 47  1  0  0  0  0
  4  3  1  0  0  0  0
  5  4  1  0  0  0  0
  5 48  1  0  0  0  0
  5 49  1  0  0  0  0
  6  5  1  0  0  0  0
  6 50  1  0  0  0  0
  6 51  1  0  0  0  0
  7  6  1  0  0  0  0
  7 52  1  1  0  0  0
  8  7  1  0  0  0  0
  8 53  1  0  0  0  0
  8 54  1  0  0  0  0
  9  8  1  0  0  0  0
  9 55  1  1  0  0  0
 10  9  1  0  0  0  0
 10 56  1  0  0  0  0
 10 57  1  0  0  0  0
 11 10  1  0  0  0  0
 11 58  1  0  0  0  0
 11 59  1  0  0  0  0
 12 11  1  0  0  0  0
 13 12  2  0  0  0  0
 13 60  1  0  0  0  0
 14 13  1  0  0  0  0
 15 14  1  0  0  0  0
 16 15  1  0  0  0  0
 16 61  1  0  0  0  0
 16 62  1  0  0  0  0
 16 63  1  0  0  0  0
 17 14  2  0  0  0  0
 18 17  1  0  0  0  0
 19 18  1  0  0  0  0
 19 64  1  0  0  0  0
 19 65  1  0  0  0  0
 19 66  1  0  0  0  0
 20 17  1  0  0  0  0
 20 67  1  0  0  0  0
 21 20  2  0  0  0  0
 21 12  1  0  0  0  0
 21 68  1  0  0  0  0
 22  9  1  0  0  0  0
 23 22  1  0  0  0  0
 24 23  2  0  0  0  0
 25 23  1  0  0  0  0
 26 25  2  0  0  0  0
 26 69  1  0  0  0  0
 27 26  1  0  0  0  0
 27 70  1  0  0  0  0
 28 27  2  0  0  0  0
 29 28  1  0  0  0  0
 30 28  1  0  0  0  0
 30 71  1  0  0  0  0
 31 30  2  0  0  0  0
 31 25  1  0  0  0  0
 31 72  1  0  0  0  0
 32  7  1  0  0  0  0
 33 32  1  0  0  0  0
 34 33  2  0  0  0  0
 35 33  1  0  0  0  0
 36 35  2  0  0  0  0
 36 73  1  0  0  0  0
 37 36  1  0  0  0  0
 37 74  1  0  0  0  0
 38 37  2  0  0  0  0
 39 38  1  0  0  0  0
 40 38  1  0  0  0  0
 40 75  1  0  0  0  0
 41 40  2  0  0  0  0
 41 35  1  0  0  0  0
 41 76  1  0  0  0  0
 42  4  2  0  0  0  0
 42 77  1  0  0  0  0
 43 42  1  0  0  0  0
 43 78  1  0  0  0  0
 44 43  2  0  0  0  0
 44  2  1  0  0  0  0
 45 44  1  0  0  0  0
 46 45  1  0  0  0  0
 46 79  1  0  0  0  0
 46 80  1  0  0  0  0
 46 81  1  0  0  0  0
M  END
>  <MOL Chiral Flag>
0

>  <energy>
165.37423116583301

$$$$
