>516.sdf
 OpenBabel10062215013D

 40 43  0  0  0  0  0  0  0  0999 V2000
    2.5729   -3.0878   -3.0818 Cl  0  0  0  0  0  0  0  0  0  0  0  0
    1.7628   -2.5221   -1.6225 C   0  0  0  0  0  0  0  0  0  0  0  0
    0.7269   -3.2495   -1.1473 N   0  0  0  0  0  0  0  0  0  0  0  0
    0.0647   -2.8978   -0.0509 N   0  0  0  0  0  0  0  0  0  0  0  0
    0.3678   -1.7858    0.6777 C   0  0  0  0  0  0  0  0  0  0  0  0
   -0.3917   -1.5209    1.8757 N   0  0  0  0  0  0  0  0  0  0  0  0
   -1.3487   -2.5043    2.3840 C   0  0  0  0  0  0  0  0  0  0  0  0
   -2.6631   -1.9245    2.9695 C   0  0  0  0  0  0  0  0  0  0  0  0
   -3.5803   -3.1282    3.3321 C   0  0  0  0  0  0  0  0  0  0  0  0
   -4.5893   -2.8980    4.3731 N   0  0  0  0  0  0  0  0  0  0  0  0
   -5.9246   -3.0112    4.2565 C   0  0  0  0  0  0  0  0  0  0  0  0
   -6.4783   -2.8586    5.5105 C   0  0  0  0  0  0  0  0  0  0  0  0
   -5.4903   -2.6446    6.4035 N   0  0  0  0  0  0  0  0  0  0  0  0
   -4.3496   -2.6717    5.6812 C   0  0  0  0  0  0  0  0  0  0  0  0
    1.4560   -0.9667    0.2335 C   0  0  0  0  0  0  0  0  0  0  0  0
    1.8723    0.2050    0.9121 C   0  0  0  0  0  0  0  0  0  0  0  0
    2.9504    0.9719    0.4269 C   0  0  0  0  0  0  0  0  0  0  0  0
    3.6299    0.5747   -0.7448 C   0  0  0  0  0  0  0  0  0  0  0  0
    4.7022    1.3443   -1.2304 C   0  0  0  0  0  0  0  0  0  0  0  0
    5.0965    2.5017   -0.5566 C   0  0  0  0  0  0  0  0  0  0  0  0
    4.4288    2.8973    0.6044 C   0  0  0  0  0  0  0  0  0  0  0  0
    3.3608    2.1381    1.0976 C   0  0  0  0  0  0  0  0  0  0  0  0
    3.2338   -0.5813   -1.4179 C   0  0  0  0  0  0  0  0  0  0  0  0
    2.1568   -1.3557   -0.9435 C   0  0  0  0  0  0  0  0  0  0  0  0
   -0.1298   -0.7485    2.5001 H   0  0  0  0  0  0  0  0  0  0  0  0
   -1.6031   -3.2516    1.6051 H   0  0  0  0  0  0  0  0  0  0  0  0
   -0.8533   -3.0486    3.2176 H   0  0  0  0  0  0  0  0  0  0  0  0
   -3.1933   -1.2646    2.2450 H   0  0  0  0  0  0  0  0  0  0  0  0
   -2.3984   -1.3250    3.8658 H   0  0  0  0  0  0  0  0  0  0  0  0
   -4.0605   -3.4889    2.3955 H   0  0  0  0  0  0  0  0  0  0  0  0
   -2.9575   -3.9601    3.7215 H   0  0  0  0  0  0  0  0  0  0  0  0
   -6.4580   -3.2233    3.3397 H   0  0  0  0  0  0  0  0  0  0  0  0
   -7.5285   -2.9276    5.7674 H   0  0  0  0  0  0  0  0  0  0  0  0
   -3.3628   -2.5816    6.1157 H   0  0  0  0  0  0  0  0  0  0  0  0
    1.3762    0.5385    1.8083 H   0  0  0  0  0  0  0  0  0  0  0  0
    5.2311    1.0504   -2.1304 H   0  0  0  0  0  0  0  0  0  0  0  0
    5.9213    3.0929   -0.9355 H   0  0  0  0  0  0  0  0  0  0  0  0
    4.7396    3.7954    1.1226 H   0  0  0  0  0  0  0  0  0  0  0  0
    2.8554    2.4612    1.9988 H   0  0  0  0  0  0  0  0  0  0  0  0
    3.7706   -0.8709   -2.3130 H   0  0  0  0  0  0  0  0  0  0  0  0
  2  1  1  0  0  0  0
  3  2  2  0  0  0  0
  4  3  1  0  0  0  0
  5  4  2  0  0  0  0
  6  5  1  0  0  0  0
  6 25  1  0  0  0  0
  7  6  1  0  0  0  0
  7 26  1  0  0  0  0
  7 27  1  0  0  0  0
  8  7  1  0  0  0  0
  8 28  1  0  0  0  0
  8 29  1  0  0  0  0
  9  8  1  0  0  0  0
  9 30  1  0  0  0  0
  9 31  1  0  0  0  0
 10  9  1  0  0  0  0
 11 10  1  0  0  0  0
 11 32  1  0  0  0  0
 12 11  2  0  0  0  0
 12 33  1  0  0  0  0
 13 12  1  0  0  0  0
 14 13  2  0  0  0  0
 14 10  1  0  0  0  0
 14 34  1  0  0  0  0
 15  5  1  0  0  0  0
 16 15  2  0  0  0  0
 16 35  1  0  0  0  0
 17 16  1  0  0  0  0
 18 17  2  0  0  0  0
 19 18  1  0  0  0  0
 19 36  1  0  0  0  0
 20 19  2  0  0  0  0
 20 37  1  0  0  0  0
 21 20  1  0  0  0  0
 21 38  1  0  0  0  0
 22 21  2  0  0  0  0
 22 17  1  0  0  0  0
 22 39  1  0  0  0  0
 23 18  1  0  0  0  0
 23 40  1  0  0  0  0
 24 23  2  0  0  0  0
 24  2  1  0  0  0  0
 24 15  1  0  0  0  0
M  END
>  <MOL Chiral Flag>
0

>  <energy>
62.25285532923003

$$$$
