>517.sdf
 OpenBabel10062215013D

 34 37  0  0  0  0  0  0  0  0999 V2000
   -0.3875    0.7984    4.5774 Cl  0  0  0  0  0  0  0  0  0  0  0  0
   -0.4436    1.2200    2.8685 C   0  0  0  0  0  0  0  0  0  0  0  0
   -1.2428    2.2479    2.4870 N   0  0  0  0  0  0  0  0  0  0  0  0
   -1.3240    2.6450    1.2180 N   0  0  0  0  0  0  0  0  0  0  0  0
   -0.6318    2.0293    0.2215 C   0  0  0  0  0  0  0  0  0  0  0  0
   -0.7278    2.5329   -1.1099 N   0  0  0  0  0  0  0  0  0  0  0  0
   -1.2238    3.8624   -1.3929 C   0  0  0  0  0  0  0  0  0  0  0  0
   -0.8710    4.2134   -2.7687 N   0  0  0  0  0  0  0  0  0  0  0  0
   -1.6888    4.5570   -3.7745 C   0  0  0  0  0  0  0  0  0  0  0  0
   -0.9134    4.7800   -4.8932 C   0  0  0  0  0  0  0  0  0  0  0  0
    0.3831    4.5762   -4.5801 N   0  0  0  0  0  0  0  0  0  0  0  0
    0.3783    4.2342   -3.2765 C   0  0  0  0  0  0  0  0  0  0  0  0
    0.2236    0.9429    0.5470 C   0  0  0  0  0  0  0  0  0  0  0  0
    1.0069    0.2769   -0.4248 C   0  0  0  0  0  0  0  0  0  0  0  0
    1.8795   -0.7491   -0.0619 C   0  0  0  0  0  0  0  0  0  0  0  0
    1.9833   -1.1420    1.2873 C   0  0  0  0  0  0  0  0  0  0  0  0
    2.8805   -2.1632    1.6421 C   0  0  0  0  0  0  0  0  0  0  0  0
    3.6638   -2.7824    0.6616 C   0  0  0  0  0  0  0  0  0  0  0  0
    3.5547   -2.3930   -0.6754 C   0  0  0  0  0  0  0  0  0  0  0  0
    2.6657   -1.3815   -1.0388 C   0  0  0  0  0  0  0  0  0  0  0  0
    1.2014   -0.5037    2.2604 C   0  0  0  0  0  0  0  0  0  0  0  0
    0.3245    0.5424    1.9022 C   0  0  0  0  0  0  0  0  0  0  0  0
   -0.3172    2.0169   -1.8929 H   0  0  0  0  0  0  0  0  0  0  0  0
   -0.7194    4.5900   -0.7201 H   0  0  0  0  0  0  0  0  0  0  0  0
   -2.3211    3.9139   -1.2219 H   0  0  0  0  0  0  0  0  0  0  0  0
   -2.7650    4.6361   -3.7037 H   0  0  0  0  0  0  0  0  0  0  0  0
   -1.2626    5.0683   -5.8746 H   0  0  0  0  0  0  0  0  0  0  0  0
    1.2703    3.9906   -2.7110 H   0  0  0  0  0  0  0  0  0  0  0  0
    0.9777    0.5421   -1.4655 H   0  0  0  0  0  0  0  0  0  0  0  0
    2.9795   -2.4746    2.6745 H   0  0  0  0  0  0  0  0  0  0  0  0
    4.3585   -3.5641    0.9380 H   0  0  0  0  0  0  0  0  0  0  0  0
    4.1623   -2.8724   -1.4322 H   0  0  0  0  0  0  0  0  0  0  0  0
    2.5948   -1.0864   -2.0798 H   0  0  0  0  0  0  0  0  0  0  0  0
    1.2958   -0.8136    3.2932 H   0  0  0  0  0  0  0  0  0  0  0  0
  2  1  1  0  0  0  0
  3  2  2  0  0  0  0
  4  3  1  0  0  0  0
  5  4  2  0  0  0  0
  6  5  1  0  0  0  0
  6 23  1  0  0  0  0
  7  6  1  0  0  0  0
  7 24  1  0  0  0  0
  7 25  1  0  0  0  0
  8  7  1  0  0  0  0
  9  8  1  0  0  0  0
  9 26  1  0  0  0  0
 10  9  2  0  0  0  0
 10 27  1  0  0  0  0
 11 10  1  0  0  0  0
 12 11  2  0  0  0  0
 12  8  1  0  0  0  0
 12 28  1  0  0  0  0
 13  5  1  0  0  0  0
 14 13  2  0  0  0  0
 14 29  1  0  0  0  0
 15 14  1  0  0  0  0
 16 15  2  0  0  0  0
 17 16  1  0  0  0  0
 17 30  1  0  0  0  0
 18 17  2  0  0  0  0
 18 31  1  0  0  0  0
 19 18  1  0  0  0  0
 19 32  1  0  0  0  0
 20 19  2  0  0  0  0
 20 15  1  0  0  0  0
 20 33  1  0  0  0  0
 21 16  1  0  0  0  0
 21 34  1  0  0  0  0
 22 21  2  0  0  0  0
 22  2  1  0  0  0  0
 22 13  1  0  0  0  0
M  END
>  <MOL Chiral Flag>
0

>  <energy>
63.1755973978198

$$$$
