>518.sdf
 OpenBabel10062215023D

122126  0  0  0  0  0  0  0  0999 V2000
    6.6742    3.6496    2.9747 C   0  0  0  0  0  0  0  0  0  0  0  0
    6.1315    2.2598    2.6330 C   0  0  2  0  0  0  0  0  0  0  0  0
    4.7121    2.3203    2.6772 O   0  0  0  0  0  0  0  0  0  0  0  0
    4.1105    1.0813    2.3277 C   0  0  1  0  0  0  0  0  0  0  0  0
    4.3904    0.7347    1.0085 O   0  0  0  0  0  0  0  0  0  0  0  0
    3.4535    0.5909    0.0322 C   0  0  0  0  0  0  0  0  0  0  0  0
    2.2928    1.3795   -0.0039 C   0  0  0  0  0  0  0  0  0  0  0  0
    1.3204    1.1650   -0.9782 C   0  0  0  0  0  0  0  0  0  0  0  0
    1.4834    0.1463   -1.9374 C   0  0  0  0  0  0  0  0  0  0  0  0
    2.6713   -0.6336   -1.9368 C   0  0  0  0  0  0  0  0  0  0  0  0
    2.8333   -1.5954   -2.8915 O   0  0  0  0  0  0  0  0  0  0  0  0
    3.6834   -2.6588   -2.9122 C   0  0  0  0  0  0  0  0  0  0  0  0
    3.8469   -3.4345   -4.1793 C   0  0  0  0  0  0  0  0  0  0  0  0
    4.2724   -3.0255   -1.9072 O   0  0  0  0  0  0  0  0  0  0  0  0
    3.6523   -0.3845   -0.9489 C   0  0  0  0  0  0  0  0  0  0  0  0
    0.4225   -0.0786   -2.8401 C   0  0  0  0  0  0  0  0  0  0  0  0
    0.4890   -0.9707   -3.6679 O   0  0  0  0  0  0  0  0  0  0  0  0
   -0.7396    0.7132   -2.7584 C   0  0  0  0  0  0  0  0  0  0  0  0
   -1.8342    0.4220   -3.5047 O   0  0  0  0  0  0  0  0  0  0  0  0
   -2.4855   -0.8088   -3.5010 C   0  0  2  0  0  0  0  0  0  0  0  0
   -3.6639   -0.6659   -4.2805 O   0  0  0  0  0  0  0  0  0  0  0  0
   -4.3707   -1.8955   -4.4185 C   0  0  2  0  0  0  0  0  0  0  0  0
   -5.4782   -1.6484   -5.4752 C   0  0  0  0  0  0  0  0  0  0  0  0
   -5.9337   -2.8437   -6.2991 C   0  0  0  0  0  0  0  0  0  0  0  0
   -6.6325   -4.0296   -5.7125 C   0  0  0  0  0  0  0  0  0  0  0  0
   -5.7565   -2.8205   -7.5088 O   0  0  0  0  0  0  0  0  0  0  0  0
   -4.9074   -2.2988   -3.0092 C   0  0  1  0  0  0  0  0  0  0  0  0
   -5.6216   -3.4835   -3.0061 O   0  0  0  0  0  0  0  0  0  0  0  0
   -6.8696   -3.6374   -2.4798 C   0  0  0  0  0  0  0  0  0  0  0  0
   -7.4860   -4.9985   -2.4296 C   0  0  0  0  0  0  0  0  0  0  0  0
   -7.4871   -2.6829   -2.0291 O   0  0  0  0  0  0  0  0  0  0  0  0
   -3.7099   -2.4805   -2.0724 C   0  0  2  0  0  0  0  0  0  0  0  0
   -4.1644   -2.7573   -0.7903 O   0  0  0  0  0  0  0  0  0  0  0  0
   -3.8730   -3.8595   -0.0459 C   0  0  0  0  0  0  0  0  0  0  0  0
   -2.9611   -4.9474   -0.5421 C   0  0  0  0  0  0  0  0  0  0  0  0
   -4.3612   -3.9618    1.0680 O   0  0  0  0  0  0  0  0  0  0  0  0
   -2.8735   -1.2003   -2.0467 C   0  0  1  0  0  0  0  0  0  0  0  0
   -1.7331   -1.4371   -1.2916 O   0  0  0  0  0  0  0  0  0  0  0  0
   -1.5278   -1.1638    0.0292 C   0  0  0  0  0  0  0  0  0  0  0  0
   -2.5985   -0.6312    0.9474 C   0  0  0  0  0  0  0  0  0  0  0  0
   -0.4246   -1.3839    0.5024 O   0  0  0  0  0  0  0  0  0  0  0  0
   -0.7878    1.7693   -1.8138 C   0  0  0  0  0  0  0  0  0  0  0  0
    0.2307    1.9214   -0.9697 O   0  0  0  0  0  0  0  0  0  0  0  0
   -1.9562    2.7057   -1.6516 C   0  0  0  0  0  0  0  0  0  0  0  0
   -2.0356    3.4769   -0.4735 C   0  0  0  0  0  0  0  0  0  0  0  0
   -3.0967    4.3739   -0.2547 C   0  0  0  0  0  0  0  0  0  0  0  0
   -3.1905    5.0997    0.8926 O   0  0  0  0  0  0  0  0  0  0  0  0
   -2.8574    4.7302    2.1628 C   0  0  0  0  0  0  0  0  0  0  0  0
   -2.8340    3.2889    2.6137 C   0  0  0  0  0  0  0  0  0  0  0  0
   -2.6854    5.6041    2.9976 O   0  0  0  0  0  0  0  0  0  0  0  0
   -4.0727    4.5437   -1.2577 C   0  0  0  0  0  0  0  0  0  0  0  0
   -5.1041    5.4120   -1.1067 O   0  0  0  0  0  0  0  0  0  0  0  0
   -4.9904    6.7290   -0.7832 C   0  0  0  0  0  0  0  0  0  0  0  0
   -3.7219    7.5045   -1.0373 C   0  0  0  0  0  0  0  0  0  0  0  0
   -5.9711    7.3199   -0.3602 O   0  0  0  0  0  0  0  0  0  0  0  0
   -4.0052    3.7819   -2.4244 C   0  0  0  0  0  0  0  0  0  0  0  0
   -2.9651    2.8753   -2.6270 C   0  0  0  0  0  0  0  0  0  0  0  0
    4.5470   -0.0596    3.2798 C   0  0  2  0  0  0  0  0  0  0  0  0
    4.1172    0.1830    4.5781 O   0  0  0  0  0  0  0  0  0  0  0  0
    2.8196    0.1257    4.9840 C   0  0  0  0  0  0  0  0  0  0  0  0
    2.4752    0.4847    6.3934 C   0  0  0  0  0  0  0  0  0  0  0  0
    1.9370   -0.2369    4.2180 O   0  0  0  0  0  0  0  0  0  0  0  0
    6.0858   -0.1628    3.2632 C   0  0  2  0  0  0  0  0  0  0  0  0
    6.5382   -1.1143    4.1644 O   0  0  0  0  0  0  0  0  0  0  0  0
    6.3328   -2.4524    4.0415 C   0  0  0  0  0  0  0  0  0  0  0  0
    6.7963   -3.3660    5.1294 C   0  0  0  0  0  0  0  0  0  0  0  0
    5.7898   -2.9164    3.0484 O   0  0  0  0  0  0  0  0  0  0  0  0
    6.6729    1.2071    3.6294 C   0  0  1  0  0  0  0  0  0  0  0  0
    8.0580    1.1442    3.5523 O   0  0  0  0  0  0  0  0  0  0  0  0
    8.9345    1.3546    4.5747 C   0  0  0  0  0  0  0  0  0  0  0  0
    8.4803    1.6758    5.9738 C   0  0  0  0  0  0  0  0  0  0  0  0
   10.1312    1.2743    4.3484 O   0  0  0  0  0  0  0  0  0  0  0  0
    6.3597    3.9483    3.9979 H   0  0  0  0  0  0  0  0  0  0  0  0
    7.7834    3.6650    2.9195 H   0  0  0  0  0  0  0  0  0  0  0  0
    6.2810    4.3948    2.2511 H   0  0  0  0  0  0  0  0  0  0  0  0
    6.4729    2.0246    1.5984 H   0  0  0  0  0  0  0  0  0  0  0  0
    3.0184    1.1943    2.4689 H   0  0  0  0  0  0  0  0  0  0  0  0
    2.1301    2.1599    0.7275 H   0  0  0  0  0  0  0  0  0  0  0  0
    3.5232   -4.4844   -4.0212 H   0  0  0  0  0  0  0  0  0  0  0  0
    3.2306   -2.9863   -4.9873 H   0  0  0  0  0  0  0  0  0  0  0  0
    4.9122   -3.4208   -4.4912 H   0  0  0  0  0  0  0  0  0  0  0  0
    4.5682   -0.9521   -0.9125 H   0  0  0  0  0  0  0  0  0  0  0  0
   -1.8287   -1.5835   -3.9542 H   0  0  0  0  0  0  0  0  0  0  0  0
   -3.6812   -2.6613   -4.8452 H   0  0  0  0  0  0  0  0  0  0  0  0
   -6.3382   -1.1149   -5.0165 H   0  0  0  0  0  0  0  0  0  0  0  0
   -5.0419   -0.9497   -6.2255 H   0  0  0  0  0  0  0  0  0  0  0  0
   -5.9490   -4.5880   -5.0484 H   0  0  0  0  0  0  0  0  0  0  0  0
   -6.9360   -4.7360   -6.5148 H   0  0  0  0  0  0  0  0  0  0  0  0
   -7.5476   -3.7014   -5.1785 H   0  0  0  0  0  0  0  0  0  0  0  0
   -5.5268   -1.4559   -2.6240 H   0  0  0  0  0  0  0  0  0  0  0  0
   -7.6959   -5.2734   -1.3743 H   0  0  0  0  0  0  0  0  0  0  0  0
   -8.4352   -5.0034   -3.0049 H   0  0  0  0  0  0  0  0  0  0  0  0
   -6.7951   -5.7511   -2.8641 H   0  0  0  0  0  0  0  0  0  0  0  0
   -3.0770   -3.2999   -2.4781 H   0  0  0  0  0  0  0  0  0  0  0  0
   -1.9554   -4.5271   -0.7543 H   0  0  0  0  0  0  0  0  0  0  0  0
   -2.8522   -5.7457    0.2228 H   0  0  0  0  0  0  0  0  0  0  0  0
   -3.3821   -5.4011   -1.4634 H   0  0  0  0  0  0  0  0  0  0  0  0
   -3.4740   -0.3578   -1.6442 H   0  0  0  0  0  0  0  0  0  0  0  0
   -3.5803   -0.4768    0.4676 H   0  0  0  0  0  0  0  0  0  0  0  0
   -2.7493   -1.3519    1.7787 H   0  0  0  0  0  0  0  0  0  0  0  0
   -2.2654    0.3375    1.3721 H   0  0  0  0  0  0  0  0  0  0  0  0
   -1.2628    3.3850    0.2720 H   0  0  0  0  0  0  0  0  0  0  0  0
   -2.6351    3.2329    3.7064 H   0  0  0  0  0  0  0  0  0  0  0  0
   -2.0466    2.6944    2.1224 H   0  0  0  0  0  0  0  0  0  0  0  0
   -3.8212    2.8212    2.4167 H   0  0  0  0  0  0  0  0  0  0  0  0
   -3.8561    8.5703   -0.7539 H   0  0  0  0  0  0  0  0  0  0  0  0
   -2.8668    7.1081   -0.4595 H   0  0  0  0  0  0  0  0  0  0  0  0
   -3.4751    7.4567   -2.1186 H   0  0  0  0  0  0  0  0  0  0  0  0
   -4.7591    3.9066   -3.1926 H   0  0  0  0  0  0  0  0  0  0  0  0
   -2.9585    2.3520   -3.5646 H   0  0  0  0  0  0  0  0  0  0  0  0
    4.1084   -1.0220    2.9347 H   0  0  0  0  0  0  0  0  0  0  0  0
    2.7690    1.5366    6.5896 H   0  0  0  0  0  0  0  0  0  0  0  0
    1.3837    0.3761    6.5728 H   0  0  0  0  0  0  0  0  0  0  0  0
    3.0213   -0.1844    7.0905 H   0  0  0  0  0  0  0  0  0  0  0  0
    6.4385   -0.4300    2.2395 H   0  0  0  0  0  0  0  0  0  0  0  0
    6.2850   -3.0996    6.0778 H   0  0  0  0  0  0  0  0  0  0  0  0
    7.8929   -3.2577    5.2621 H   0  0  0  0  0  0  0  0  0  0  0  0
    6.5659   -4.4242    4.8809 H   0  0  0  0  0  0  0  0  0  0  0  0
    6.3250    1.4814    4.6482 H   0  0  0  0  0  0  0  0  0  0  0  0
    7.8529    0.8479    6.3659 H   0  0  0  0  0  0  0  0  0  0  0  0
    9.3527    1.8030    6.6503 H   0  0  0  0  0  0  0  0  0  0  0  0
    7.8984    2.6211    5.9763 H   0  0  0  0  0  0  0  0  0  0  0  0
  1 73  1  0  0  0  0
  1 74  1  0  0  0  0
  1 75  1  0  0  0  0
  2  1  1  0  0  0  0
  2 76  1  6  0  0  0
  3  2  1  0  0  0  0
  4  3  1  0  0  0  0
  4 77  1  1  0  0  0
  5  4  1  0  0  0  0
  6  5  1  0  0  0  0
  7  6  2  0  0  0  0
  7 78  1  0  0  0  0
  8  7  1  0  0  0  0
  9  8  2  0  0  0  0
 10  9  1  0  0  0  0
 11 10  1  0  0  0  0
 12 11  1  0  0  0  0
 13 12  1  0  0  0  0
 13 79  1  0  0  0  0
 13 80  1  0  0  0  0
 13 81  1  0  0  0  0
 14 12  2  0  0  0  0
 15 10  2  0  0  0  0
 15  6  1  0  0  0  0
 15 82  1  0  0  0  0
 16  9  1  0  0  0  0
 17 16  2  0  0  0  0
 18 16  1  0  0  0  0
 19 18  1  0  0  0  0
 20 19  1  0  0  0  0
 20 83  1  6  0  0  0
 21 20  1  0  0  0  0
 22 21  1  0  0  0  0
 22 84  1  6  0  0  0
 23 22  1  0  0  0  0
 23 85  1  0  0  0  0
 23 86  1  0  0  0  0
 24 23  1  0  0  0  0
 25 24  1  0  0  0  0
 25 87  1  0  0  0  0
 25 88  1  0  0  0  0
 25 89  1  0  0  0  0
 26 24  2  0  0  0  0
 27 22  1  0  0  0  0
 27 90  1  1  0  0  0
 28 27  1  0  0  0  0
 29 28  1  0  0  0  0
 30 29  1  0  0  0  0
 30 91  1  0  0  0  0
 30 92  1  0  0  0  0
 30 93  1  0  0  0  0
 31 29  2  0  0  0  0
 32 27  1  0  0  0  0
 32 94  1  6  0  0  0
 33 32  1  0  0  0  0
 34 33  1  0  0  0  0
 35 34  1  0  0  0  0
 35 95  1  0  0  0  0
 35 96  1  0  0  0  0
 35 97  1  0  0  0  0
 36 34  2  0  0  0  0
 37 32  1  0  0  0  0
 37 20  1  0  0  0  0
 37 98  1  1  0  0  0
 38 37  1  0  0  0  0
 39 38  1  0  0  0  0
 40 39  1  0  0  0  0
 40 99  1  0  0  0  0
 40100  1  0  0  0  0
 40101  1  0  0  0  0
 41 39  2  0  0  0  0
 42 18  2  0  0  0  0
 43 42  1  0  0  0  0
 43  8  1  0  0  0  0
 44 42  1  0  0  0  0
 45 44  2  0  0  0  0
 45102  1  0  0  0  0
 46 45  1  0  0  0  0
 47 46  1  0  0  0  0
 48 47  1  0  0  0  0
 49 48  1  0  0  0  0
 49103  1  0  0  0  0
 49104  1  0  0  0  0
 49105  1  0  0  0  0
 50 48  2  0  0  0  0
 51 46  2  0  0  0  0
 52 51  1  0  0  0  0
 53 52  1  0  0  0  0
 54 53  1  0  0  0  0
 54106  1  0  0  0  0
 54107  1  0  0  0  0
 54108  1  0  0  0  0
 55 53  2  0  0  0  0
 56 51  1  0  0  0  0
 56109  1  0  0  0  0
 57 56  2  0  0  0  0
 57 44  1  0  0  0  0
 57110  1  0  0  0  0
 58  4  1  0  0  0  0
 58111  1  6  0  0  0
 59 58  1  0  0  0  0
 60 59  1  0  0  0  0
 61 60  1  0  0  0  0
 61112  1  0  0  0  0
 61113  1  0  0  0  0
 61114  1  0  0  0  0
 62 60  2  0  0  0  0
 63 58  1  0  0  0  0
 63115  1  6  0  0  0
 64 63  1  0  0  0  0
 65 64  1  0  0  0  0
 66 65  1  0  0  0  0
 66116  1  0  0  0  0
 66117  1  0  0  0  0
 66118  1  0  0  0  0
 67 65  2  0  0  0  0
 68 63  1  0  0  0  0
 68  2  1  0  0  0  0
 68119  1  1  0  0  0
 69 68  1  0  0  0  0
 70 69  1  0  0  0  0
 71 70  1  0  0  0  0
 71120  1  0  0  0  0
 71121  1  0  0  0  0
 71122  1  0  0  0  0
 72 70  2  0  0  0  0
M  END
>  <MOL Chiral Flag>
0

>  <energy>
289.93457965732728

$$$$
