>52.sdf
 OpenBabel10052218123D

 46 49  0  0  0  0  0  0  0  0999 V2000
   -3.2461    3.3411    6.4618 F   0  0  0  0  0  0  0  0  0  0  0  0
   -3.3629    2.8748    5.1941 C   0  0  0  0  0  0  0  0  0  0  0  0
   -3.0209    3.6903    4.1194 C   0  0  0  0  0  0  0  0  0  0  0  0
   -3.1391    3.2171    2.8118 C   0  0  0  0  0  0  0  0  0  0  0  0
   -3.6059    1.9033    2.5499 C   0  0  0  0  0  0  0  0  0  0  0  0
   -3.9413    1.0895    3.6587 C   0  0  0  0  0  0  0  0  0  0  0  0
   -3.8217    1.5786    4.9646 C   0  0  0  0  0  0  0  0  0  0  0  0
   -3.7138    1.4180    1.1902 N   0  0  0  0  0  0  0  0  0  0  0  0
   -3.7546    2.3068    0.0511 C   0  0  0  0  0  0  0  0  0  0  0  0
   -2.4967    2.1023   -0.7696 C   0  0  0  0  0  0  0  0  0  0  0  0
   -2.0634    0.7037   -0.9072 N   0  0  0  0  0  0  0  0  0  0  0  0
   -2.6321   -0.3791   -0.0802 C   0  0  0  0  0  0  0  0  0  0  0  0
   -3.8172    0.0167    0.8234 C   0  0  0  0  0  0  0  0  0  0  0  0
   -0.9674    0.4637   -1.7082 C   0  0  0  0  0  0  0  0  0  0  0  0
   -0.4215    1.4144   -2.2572 O   0  0  0  0  0  0  0  0  0  0  0  0
   -0.4902   -0.8035   -1.9353 N   0  0  0  0  0  0  0  0  0  0  0  0
    0.6822   -1.0547   -2.7120 C   0  0  0  0  0  0  0  0  0  0  0  0
    1.7314   -0.1858   -2.9425 C   0  0  0  0  0  0  0  0  0  0  0  0
    2.5990   -0.8938   -3.7508 C   0  0  0  0  0  0  0  0  0  0  0  0
    2.0866   -2.1219   -3.9858 N   0  0  0  0  0  0  0  0  0  0  0  0
    0.9340   -2.2179   -3.3383 N   0  0  0  0  0  0  0  0  0  0  0  0
    3.8875   -0.4121   -4.2880 C   0  0  0  0  0  0  0  0  0  0  0  0
    4.5235   -1.1320   -5.2545 N   0  0  0  0  0  0  0  0  0  0  0  0
    5.7033   -0.7199   -5.7943 C   0  0  0  0  0  0  0  0  0  0  0  0
    6.3057    0.4587   -5.3486 C   0  0  0  0  0  0  0  0  0  0  0  0
    5.6849    1.2083   -4.3512 C   0  0  0  0  0  0  0  0  0  0  0  0
    4.4687    0.7813   -3.8201 C   0  0  0  0  0  0  0  0  0  0  0  0
   -2.6569    4.6947    4.2966 H   0  0  0  0  0  0  0  0  0  0  0  0
   -2.8393    3.8835    2.0194 H   0  0  0  0  0  0  0  0  0  0  0  0
   -4.3115    0.0861    3.5383 H   0  0  0  0  0  0  0  0  0  0  0  0
   -4.0878    0.9474    5.8025 H   0  0  0  0  0  0  0  0  0  0  0  0
   -3.8848    3.3788    0.2867 H   0  0  0  0  0  0  0  0  0  0  0  0
   -4.6469    2.0437   -0.5605 H   0  0  0  0  0  0  0  0  0  0  0  0
   -2.6758    2.5622   -1.7670 H   0  0  0  0  0  0  0  0  0  0  0  0
   -1.6683    2.6565   -0.2743 H   0  0  0  0  0  0  0  0  0  0  0  0
   -1.8120   -0.7101    0.5955 H   0  0  0  0  0  0  0  0  0  0  0  0
   -2.9566   -1.2489   -0.6905 H   0  0  0  0  0  0  0  0  0  0  0  0
   -4.7621   -0.1055    0.2485 H   0  0  0  0  0  0  0  0  0  0  0  0
   -3.8681   -0.7019    1.6603 H   0  0  0  0  0  0  0  0  0  0  0  0
   -1.0067   -1.6239   -1.5915 H   0  0  0  0  0  0  0  0  0  0  0  0
    1.8596    0.8201   -2.5732 H   0  0  0  0  0  0  0  0  0  0  0  0
    0.3216   -3.0640   -3.3495 H   0  0  0  0  0  0  0  0  0  0  0  0
    6.1744   -1.3069   -6.5709 H   0  0  0  0  0  0  0  0  0  0  0  0
    7.2459    0.7877   -5.7715 H   0  0  0  0  0  0  0  0  0  0  0  0
    6.1435    2.1201   -3.9902 H   0  0  0  0  0  0  0  0  0  0  0  0
    3.9987    1.3710   -3.0454 H   0  0  0  0  0  0  0  0  0  0  0  0
  2  1  1  0  0  0  0
  3  2  2  0  0  0  0
  3 28  1  0  0  0  0
  4  3  1  0  0  0  0
  4 29  1  0  0  0  0
  5  4  2  0  0  0  0
  6  5  1  0  0  0  0
  6 30  1  0  0  0  0
  7  6  2  0  0  0  0
  7  2  1  0  0  0  0
  7 31  1  0  0  0  0
  8  5  1  0  0  0  0
  9  8  1  0  0  0  0
  9 32  1  0  0  0  0
  9 33  1  0  0  0  0
 10  9  1  0  0  0  0
 10 34  1  0  0  0  0
 10 35  1  0  0  0  0
 11 10  1  0  0  0  0
 12 11  1  0  0  0  0
 12 36  1  0  0  0  0
 12 37  1  0  0  0  0
 13 12  1  0  0  0  0
 13  8  1  0  0  0  0
 13 38  1  0  0  0  0
 13 39  1  0  0  0  0
 14 11  1  0  0  0  0
 15 14  2  0  0  0  0
 16 14  1  0  0  0  0
 16 40  1  0  0  0  0
 17 16  1  0  0  0  0
 18 17  2  0  0  0  0
 18 41  1  0  0  0  0
 19 18  1  0  0  0  0
 20 19  2  0  0  0  0
 21 20  1  0  0  0  0
 21 17  1  0  0  0  0
 21 42  1  0  0  0  0
 22 19  1  0  0  0  0
 23 22  2  0  0  0  0
 24 23  1  0  0  0  0
 24 43  1  0  0  0  0
 25 24  2  0  0  0  0
 25 44  1  0  0  0  0
 26 25  1  0  0  0  0
 26 45  1  0  0  0  0
 27 26  2  0  0  0  0
 27 22  1  0  0  0  0
 27 46  1  0  0  0  0
M  END
>  <MOL Chiral Flag>
0

>  <energy>
104.83402605916163

$$$$
