>521.sdf
 OpenBabel10062215023D

 22 23  0  0  0  0  0  0  0  0999 V2000
   -3.5863   -0.6699    1.1488 C   0  0  0  0  0  0  0  0  0  0  0  0
   -2.7853   -1.3292    0.2400 O   0  0  0  0  0  0  0  0  0  0  0  0
   -1.5715   -0.8568   -0.1416 C   0  0  0  0  0  0  0  0  0  0  0  0
   -1.3517   -0.6519   -1.4495 C   0  0  0  0  0  0  0  0  0  0  0  0
   -0.0760   -0.0875   -1.9371 C   0  0  0  0  0  0  0  0  0  0  0  0
    0.0751    0.1097   -3.1328 O   0  0  0  0  0  0  0  0  0  0  0  0
    0.9979    0.2541   -0.9731 C   0  0  0  0  0  0  0  0  0  0  0  0
    0.7964    0.0099    0.3996 C   0  0  0  0  0  0  0  0  0  0  0  0
    1.8194    0.3133    1.3168 C   0  0  0  0  0  0  0  0  0  0  0  0
    3.0223    0.8668    0.8695 C   0  0  0  0  0  0  0  0  0  0  0  0
    3.2146    1.1223   -0.4896 C   0  0  0  0  0  0  0  0  0  0  0  0
    2.2098    0.8159   -1.4103 C   0  0  0  0  0  0  0  0  0  0  0  0
   -0.4984   -0.5594    0.8565 C   0  0  0  0  0  0  0  0  0  0  0  0
   -0.6751   -0.8039    2.0399 O   0  0  0  0  0  0  0  0  0  0  0  0
   -3.8634    0.3240    0.7338 H   0  0  0  0  0  0  0  0  0  0  0  0
   -3.0857   -0.5312    2.1264 H   0  0  0  0  0  0  0  0  0  0  0  0
   -4.5160   -1.2530    1.3058 H   0  0  0  0  0  0  0  0  0  0  0  0
   -2.1387   -0.8757   -2.1646 H   0  0  0  0  0  0  0  0  0  0  0  0
    1.6862    0.1259    2.3749 H   0  0  0  0  0  0  0  0  0  0  0  0
    3.8056    1.1017    1.5787 H   0  0  0  0  0  0  0  0  0  0  0  0
    4.1450    1.5568   -0.8314 H   0  0  0  0  0  0  0  0  0  0  0  0
    2.3757    1.0178   -2.4609 H   0  0  0  0  0  0  0  0  0  0  0  0
  1 15  1  0  0  0  0
  1 16  1  0  0  0  0
  1 17  1  0  0  0  0
  2  1  1  0  0  0  0
  3  2  1  0  0  0  0
  4  3  2  0  0  0  0
  4 18  1  0  0  0  0
  5  4  1  0  0  0  0
  6  5  2  0  0  0  0
  7  5  1  0  0  0  0
  8  7  2  0  0  0  0
  9  8  1  0  0  0  0
  9 19  1  0  0  0  0
 10  9  2  0  0  0  0
 10 20  1  0  0  0  0
 11 10  1  0  0  0  0
 11 21  1  0  0  0  0
 12 11  2  0  0  0  0
 12  7  1  0  0  0  0
 12 22  1  0  0  0  0
 13  8  1  0  0  0  0
 13  3  1  0  0  0  0
 14 13  2  0  0  0  0
M  END
>  <MOL Chiral Flag>
0

>  <energy>
53.379588125607434

$$$$
