>525.sdf
 OpenBabel10062215043D

 59 61  0  0  0  0  0  0  0  0999 V2000
   -5.2029    2.2213    5.6836 C   0  0  0  0  0  0  0  0  0  0  0  0
   -6.0675    2.9917    4.7065 C   0  0  0  0  0  0  0  0  0  0  0  0
   -7.2980    3.6681    5.2479 C   0  0  0  0  0  0  0  0  0  0  0  0
   -5.7952    3.0845    3.3778 C   0  0  0  0  0  0  0  0  0  0  0  0
   -4.5673    2.4880    2.7243 C   0  0  0  0  0  0  0  0  0  0  0  0
   -3.3236    3.2995    3.1224 C   0  0  0  0  0  0  0  0  0  0  0  0
   -1.9966    2.6569    2.7656 C   0  0  0  0  0  0  0  0  0  0  0  0
   -1.6580    1.3528    3.4491 C   0  0  0  0  0  0  0  0  0  0  0  0
   -1.1398    3.3141    1.9403 C   0  0  0  0  0  0  0  0  0  0  0  0
    0.3018    2.9267    1.6672 C   0  0  0  0  0  0  0  0  0  0  0  0
    0.5947    1.5929    0.9904 C   0  0  0  0  0  0  0  0  0  0  0  0
    0.1570    1.3463   -0.3250 C   0  0  0  0  0  0  0  0  0  0  0  0
   -0.5707    2.2777   -0.9782 O   0  0  0  0  0  0  0  0  0  0  0  0
    0.4964    0.1430   -0.9664 C   0  0  0  0  0  0  0  0  0  0  0  0
    1.2588   -0.8266   -0.3085 C   0  0  0  0  0  0  0  0  0  0  0  0
    1.5649   -1.9968   -0.9502 O   0  0  0  0  0  0  0  0  0  0  0  0
    2.0217   -3.1337   -0.2818 C   0  0  2  0  0  0  0  0  0  0  0  0
    3.0972   -2.7178    0.7313 C   0  0  0  0  0  0  0  0  0  0  0  0
    2.5065   -1.6852    1.6343 C   0  0  0  0  0  0  0  0  0  0  0  0
    2.6296   -1.7970    2.8427 O   0  0  0  0  0  0  0  0  0  0  0  0
    1.7059   -0.5978    1.0116 C   0  0  0  0  0  0  0  0  0  0  0  0
    1.3803    0.6228    1.6629 C   0  0  0  0  0  0  0  0  0  0  0  0
    1.8275    0.9093    2.9095 O   0  0  0  0  0  0  0  0  0  0  0  0
    2.4805   -4.1929   -1.2800 C   0  0  0  0  0  0  0  0  0  0  0  0
    1.5659   -4.6687   -2.2340 C   0  0  0  0  0  0  0  0  0  0  0  0
    1.9407   -5.6582   -3.1488 C   0  0  0  0  0  0  0  0  0  0  0  0
    3.2320   -6.1939   -3.1261 C   0  0  0  0  0  0  0  0  0  0  0  0
    3.5639   -7.1559   -4.0139 O   0  0  0  0  0  0  0  0  0  0  0  0
    4.1616   -5.7293   -2.1812 C   0  0  0  0  0  0  0  0  0  0  0  0
    5.4095   -6.2445   -2.1503 O   0  0  0  0  0  0  0  0  0  0  0  0
    3.7879   -4.7337   -1.2669 C   0  0  0  0  0  0  0  0  0  0  0  0
   -4.8219    2.9087    6.4671 H   0  0  0  0  0  0  0  0  0  0  0  0
   -4.3374    1.7066    5.2263 H   0  0  0  0  0  0  0  0  0  0  0  0
   -5.8201    1.4356    6.1679 H   0  0  0  0  0  0  0  0  0  0  0  0
   -8.2056    3.2686    4.7498 H   0  0  0  0  0  0  0  0  0  0  0  0
   -7.3955    3.4992    6.3424 H   0  0  0  0  0  0  0  0  0  0  0  0
   -7.2320    4.7629    5.0729 H   0  0  0  0  0  0  0  0  0  0  0  0
   -6.4936    3.6179    2.7378 H   0  0  0  0  0  0  0  0  0  0  0  0
   -4.5097    1.4156    2.9977 H   0  0  0  0  0  0  0  0  0  0  0  0
   -4.6597    2.5478    1.6184 H   0  0  0  0  0  0  0  0  0  0  0  0
   -3.2894    3.4464    4.2208 H   0  0  0  0  0  0  0  0  0  0  0  0
   -3.4255    4.3160    2.6802 H   0  0  0  0  0  0  0  0  0  0  0  0
   -1.7024    1.4893    4.5490 H   0  0  0  0  0  0  0  0  0  0  0  0
   -0.6631    0.9646    3.2088 H   0  0  0  0  0  0  0  0  0  0  0  0
   -2.3890    0.5725    3.1551 H   0  0  0  0  0  0  0  0  0  0  0  0
   -1.4671    4.2536    1.5024 H   0  0  0  0  0  0  0  0  0  0  0  0
    0.8137    2.9981    2.6476 H   0  0  0  0  0  0  0  0  0  0  0  0
    0.7521    3.7191    1.0313 H   0  0  0  0  0  0  0  0  0  0  0  0
   -0.8734    2.1442   -1.8879 H   0  0  0  0  0  0  0  0  0  0  0  0
    0.1629   -0.0403   -1.9805 H   0  0  0  0  0  0  0  0  0  0  0  0
    1.1724   -3.5670    0.2939 H   0  0  0  0  0  0  0  0  0  0  0  0
    3.4843   -3.5749    1.3252 H   0  0  0  0  0  0  0  0  0  0  0  0
    3.9345   -2.2436    0.1735 H   0  0  0  0  0  0  0  0  0  0  0  0
    2.4257    0.3674    3.4318 H   0  0  0  0  0  0  0  0  0  0  0  0
    0.5579   -4.2743   -2.2649 H   0  0  0  0  0  0  0  0  0  0  0  0
    1.2223   -6.0156   -3.8757 H   0  0  0  0  0  0  0  0  0  0  0  0
    4.4416   -7.5635   -4.0305 H   0  0  0  0  0  0  0  0  0  0  0  0
    6.0688   -5.9497   -1.5054 H   0  0  0  0  0  0  0  0  0  0  0  0
    4.5244   -4.4016   -0.5505 H   0  0  0  0  0  0  0  0  0  0  0  0
  1 32  1  0  0  0  0
  1 33  1  0  0  0  0
  1 34  1  0  0  0  0
  2  1  1  0  0  0  0
  3  2  1  0  0  0  0
  3 35  1  0  0  0  0
  3 36  1  0  0  0  0
  3 37  1  0  0  0  0
  4  2  2  0  0  0  0
  4 38  1  0  0  0  0
  5  4  1  0  0  0  0
  5 39  1  0  0  0  0
  5 40  1  0  0  0  0
  6  5  1  0  0  0  0
  6 41  1  0  0  0  0
  6 42  1  0  0  0  0
  7  6  1  0  0  0  0
  8  7  1  0  0  0  0
  8 43  1  0  0  0  0
  8 44  1  0  0  0  0
  8 45  1  0  0  0  0
  9  7  2  0  0  0  0
  9 46  1  0  0  0  0
 10  9  1  0  0  0  0
 10 47  1  0  0  0  0
 10 48  1  0  0  0  0
 11 10  1  0  0  0  0
 12 11  2  0  0  0  0
 13 12  1  0  0  0  0
 13 49  1  0  0  0  0
 14 12  1  0  0  0  0
 14 50  1  0  0  0  0
 15 14  2  0  0  0  0
 16 15  1  0  0  0  0
 17 16  1  0  0  0  0
 17 51  1  1  0  0  0
 18 17  1  0  0  0  0
 18 52  1  0  0  0  0
 18 53  1  0  0  0  0
 19 18  1  0  0  0  0
 20 19  2  0  0  0  0
 21 19  1  0  0  0  0
 21 15  1  0  0  0  0
 22 21  2  0  0  0  0
 22 11  1  0  0  0  0
 23 22  1  0  0  0  0
 23 54  1  0  0  0  0
 24 17  1  0  0  0  0
 25 24  2  0  0  0  0
 25 55  1  0  0  0  0
 26 25  1  0  0  0  0
 26 56  1  0  0  0  0
 27 26  2  0  0  0  0
 28 27  1  0  0  0  0
 28 57  1  0  0  0  0
 29 27  1  0  0  0  0
 30 29  1  0  0  0  0
 30 58  1  0  0  0  0
 31 29  2  0  0  0  0
 31 24  1  0  0  0  0
 31 59  1  0  0  0  0
M  END
>  <MOL Chiral Flag>
0

>  <energy>
78.555246807506052

$$$$
