>533.sdf
 OpenBabel10062215083D

 40 42  0  0  0  0  0  0  0  0999 V2000
    0.8951   -0.5971   -1.9031 C   0  0  0  0  0  0  0  0  0  0  0  0
   -0.5152   -0.4918   -2.5307 C   0  0  1  0  0  0  0  0  0  0  0  0
   -1.4383   -1.4849   -1.7831 C   0  0  0  0  0  0  0  0  0  0  0  0
   -2.9170   -1.3662   -2.0943 C   0  0  0  0  0  0  0  0  0  0  0  0
   -3.6297   -0.2787   -1.2622 C   0  0  2  0  0  0  0  0  0  0  0  0
   -3.2690    1.2475   -1.3826 C   0  0  1  0  0  0  0  0  0  0  0  0
   -3.7588    1.8149   -0.2080 O   0  0  0  0  0  0  0  0  0  0  0  0
   -3.9588    0.8893    0.7401 C   0  0  0  0  0  0  0  0  0  0  0  0
   -4.2269    1.1641    1.8989 O   0  0  0  0  0  0  0  0  0  0  0  0
   -3.7806   -0.4362    0.2157 C   0  0  0  0  0  0  0  0  0  0  0  0
   -3.8332   -1.5740    0.9206 C   0  0  0  0  0  0  0  0  0  0  0  0
   -1.7555    1.7041   -1.5360 C   0  0  2  0  0  0  0  0  0  0  0  0
   -0.9706    1.5172   -0.2178 C   0  0  0  0  0  0  0  0  0  0  0  0
   -1.7382    3.1064   -1.7396 O   0  0  0  0  0  0  0  0  0  0  0  0
   -1.0108    1.0066   -2.7564 C   0  0  2  0  0  0  0  0  0  0  0  0
   -1.8496    1.1142   -4.0873 C   0  0  0  0  0  0  0  0  0  0  0  0
   -1.4704    2.4514   -4.7214 C   0  0  0  0  0  0  0  0  0  0  0  0
   -0.1179    2.5804   -4.1408 C   0  0  0  0  0  0  0  0  0  0  0  0
    0.6663    3.4614   -4.4530 O   0  0  0  0  0  0  0  0  0  0  0  0
    0.0930    1.7792   -3.0834 O   0  0  0  0  0  0  0  0  0  0  0  0
    0.9299   -0.2417   -0.8578 H   0  0  0  0  0  0  0  0  0  0  0  0
    1.2337   -1.6559   -1.9026 H   0  0  0  0  0  0  0  0  0  0  0  0
    1.6399   -0.0252   -2.4951 H   0  0  0  0  0  0  0  0  0  0  0  0
   -0.3546   -0.9172   -3.5446 H   0  0  0  0  0  0  0  0  0  0  0  0
   -1.0938   -2.5010   -2.0806 H   0  0  0  0  0  0  0  0  0  0  0  0
   -1.3182   -1.4545   -0.6829 H   0  0  0  0  0  0  0  0  0  0  0  0
   -3.0731   -1.2462   -3.1854 H   0  0  0  0  0  0  0  0  0  0  0  0
   -3.4002   -2.3287   -1.8220 H   0  0  0  0  0  0  0  0  0  0  0  0
   -4.6934   -0.3553   -1.5888 H   0  0  0  0  0  0  0  0  0  0  0  0
   -3.8470    1.6220   -2.2534 H   0  0  0  0  0  0  0  0  0  0  0  0
   -3.7264   -2.5368    0.4354 H   0  0  0  0  0  0  0  0  0  0  0  0
   -3.9853   -1.5468    1.9950 H   0  0  0  0  0  0  0  0  0  0  0  0
    0.0748    1.8726   -0.3397 H   0  0  0  0  0  0  0  0  0  0  0  0
   -1.4156    2.1301    0.5943 H   0  0  0  0  0  0  0  0  0  0  0  0
   -0.9659    0.4792    0.1453 H   0  0  0  0  0  0  0  0  0  0  0  0
   -2.5619    3.4095   -2.1998 H   0  0  0  0  0  0  0  0  0  0  0  0
   -1.4095    0.3900   -4.8092 H   0  0  0  0  0  0  0  0  0  0  0  0
   -2.9269    0.8640   -4.0873 H   0  0  0  0  0  0  0  0  0  0  0  0
   -1.4976    2.3858   -5.8312 H   0  0  0  0  0  0  0  0  0  0  0  0
   -2.0859    3.3050   -4.3763 H   0  0  0  0  0  0  0  0  0  0  0  0
  1 21  1  0  0  0  0
  1 22  1  0  0  0  0
  1 23  1  0  0  0  0
  2  1  1  0  0  0  0
  2 24  1  6  0  0  0
  3  2  1  0  0  0  0
  3 25  1  0  0  0  0
  3 26  1  0  0  0  0
  4  3  1  0  0  0  0
  4 27  1  0  0  0  0
  4 28  1  0  0  0  0
  5  4  1  0  0  0  0
  5 29  1  6  0  0  0
  6  5  1  0  0  0  0
  6 30  1  6  0  0  0
  7  6  1  0  0  0  0
  8  7  1  0  0  0  0
  9  8  2  0  0  0  0
 10  8  1  0  0  0  0
 10  5  1  0  0  0  0
 11 10  2  0  0  0  0
 11 31  1  0  0  0  0
 11 32  1  0  0  0  0
 12  6  1  0  0  0  0
 12 13  1  1  0  0  0
 13 33  1  0  0  0  0
 13 34  1  0  0  0  0
 13 35  1  0  0  0  0
 14 12  1  0  0  0  0
 14 36  1  0  0  0  0
 15 12  1  0  0  0  0
 15  2  1  0  0  0  0
 15 16  1  6  0  0  0
 16 37  1  0  0  0  0
 16 38  1  0  0  0  0
 17 16  1  0  0  0  0
 17 39  1  0  0  0  0
 17 40  1  0  0  0  0
 18 17  1  0  0  0  0
 19 18  2  0  0  0  0
 20 18  1  0  0  0  0
 20 15  1  0  0  0  0
M  END
>  <MOL Chiral Flag>
0

>  <energy>
89.161623654910372

$$$$
