>534.sdf
 OpenBabel10062215093D

 33 34  0  0  0  0  0  0  0  0999 V2000
  -10.3069   -3.9845    2.6348 C   0  0  0  0  0  0  0  0  0  0  0  0
   -9.2040   -3.3675    1.8396 C   0  0  0  0  0  0  0  0  0  0  0  0
   -9.4299   -2.4681    1.0430 O   0  0  0  0  0  0  0  0  0  0  0  0
   -7.9559   -3.8383    2.0283 O   0  0  0  0  0  0  0  0  0  0  0  0
   -6.8089   -3.4359    1.3844 C   0  0  0  0  0  0  0  0  0  0  0  0
   -5.7180   -4.3104    1.9823 C   0  0  0  0  0  0  0  0  0  0  0  0
   -4.3985   -4.1208    1.4294 C   0  0  0  0  0  0  0  0  0  0  0  0
   -3.2696   -4.0586    1.0498 C   0  0  0  0  0  0  0  0  0  0  0  0
   -1.9402   -3.9578    0.5831 C   0  0  0  0  0  0  0  0  0  0  0  0
   -1.4741   -4.5514   -0.5869 C   0  0  0  0  0  0  0  0  0  0  0  0
   -0.1782   -4.1413   -0.9175 C   0  0  0  0  0  0  0  0  0  0  0  0
    0.3728   -3.2590   -0.0123 C   0  0  0  0  0  0  0  0  0  0  0  0
   -0.7462   -2.9709    1.1740 S   0  0  0  0  0  0  0  0  0  0  0  0
    1.6117   -2.6006   -0.3224 C   0  0  0  0  0  0  0  0  0  0  0  0
    1.7734   -1.8691   -1.4955 C   0  0  0  0  0  0  0  0  0  0  0  0
    3.1005   -1.4022   -1.6707 C   0  0  0  0  0  0  0  0  0  0  0  0
    3.9849   -1.8019   -0.6599 C   0  0  0  0  0  0  0  0  0  0  0  0
    5.4675   -1.4767   -0.6169 C   0  0  0  0  0  0  0  0  0  0  0  0
    3.0783   -2.6559    0.4563 S   0  0  0  0  0  0  0  0  0  0  0  0
  -11.2875   -3.5235    2.4036 H   0  0  0  0  0  0  0  0  0  0  0  0
  -10.3482   -5.0718    2.4085 H   0  0  0  0  0  0  0  0  0  0  0  0
  -10.0851   -3.8595    3.7164 H   0  0  0  0  0  0  0  0  0  0  0  0
   -6.6072   -2.3566    1.5732 H   0  0  0  0  0  0  0  0  0  0  0  0
   -6.9006   -3.6057    0.2869 H   0  0  0  0  0  0  0  0  0  0  0  0
   -5.6506   -4.1220    3.0723 H   0  0  0  0  0  0  0  0  0  0  0  0
   -5.9774   -5.3739    1.8044 H   0  0  0  0  0  0  0  0  0  0  0  0
   -2.0409   -5.2195   -1.2163 H   0  0  0  0  0  0  0  0  0  0  0  0
    0.3537   -4.4465   -1.8051 H   0  0  0  0  0  0  0  0  0  0  0  0
    0.9454   -1.6532   -2.1822 H   0  0  0  0  0  0  0  0  0  0  0  0
    3.3992   -0.7704   -2.4850 H   0  0  0  0  0  0  0  0  0  0  0  0
    5.6872   -0.6771    0.1142 H   0  0  0  0  0  0  0  0  0  0  0  0
    5.8298   -1.1035   -1.6043 H   0  0  0  0  0  0  0  0  0  0  0  0
    6.0950   -2.3586   -0.3522 H   0  0  0  0  0  0  0  0  0  0  0  0
  1 20  1  0  0  0  0
  1 21  1  0  0  0  0
  1 22  1  0  0  0  0
  2  1  1  0  0  0  0
  3  2  2  0  0  0  0
  4  2  1  0  0  0  0
  5  4  1  0  0  0  0
  5 23  1  0  0  0  0
  5 24  1  0  0  0  0
  6  5  1  0  0  0  0
  6 25  1  0  0  0  0
  6 26  1  0  0  0  0
  7  6  1  0  0  0  0
  8  7  3  0  0  0  0
  9  8  1  0  0  0  0
 10  9  2  0  0  0  0
 10 27  1  0  0  0  0
 11 10  1  0  0  0  0
 11 28  1  0  0  0  0
 12 11  2  0  0  0  0
 13 12  1  0  0  0  0
 13  9  1  0  0  0  0
 14 12  1  0  0  0  0
 15 14  2  0  0  0  0
 15 29  1  0  0  0  0
 16 15  1  0  0  0  0
 16 30  1  0  0  0  0
 17 16  2  0  0  0  0
 18 17  1  0  0  0  0
 18 31  1  0  0  0  0
 18 32  1  0  0  0  0
 18 33  1  0  0  0  0
 19 17  1  0  0  0  0
 19 14  1  0  0  0  0
M  END
>  <MOL Chiral Flag>
0

>  <energy>
25.089656310000699

$$$$
