>536.sdf
 OpenBabel10062215103D

 66 68  0  0  0  0  0  0  0  0999 V2000
    9.2909   -0.8482    6.4185 C   0  0  0  0  0  0  0  0  0  0  0  0
    9.1064    0.0568    5.1785 C   0  0  0  0  0  0  0  0  0  0  0  0
    7.7619    0.0183    4.5251 N   0  3  0  0  0  0  0  0  0  0  0  0
    6.7975    1.0127    5.0656 C   0  0  0  0  0  0  0  0  0  0  0  0
    6.5116    0.9150    6.5661 C   0  0  0  0  0  0  0  0  0  0  0  0
    7.2335   -1.3658    4.4032 C   0  0  0  0  0  0  0  0  0  0  0  0
    6.2268   -1.5955    3.2563 C   0  0  0  0  0  0  0  0  0  0  0  0
    4.9426   -1.1272    3.5049 O   0  0  0  0  0  0  0  0  0  0  0  0
    3.8776   -1.4267    2.6958 C   0  0  0  0  0  0  0  0  0  0  0  0
    4.0613   -2.0698    1.4341 C   0  0  0  0  0  0  0  0  0  0  0  0
    2.9643   -2.4267    0.6415 C   0  0  0  0  0  0  0  0  0  0  0  0
    1.6877   -2.1464    1.1084 C   0  0  0  0  0  0  0  0  0  0  0  0
    0.3945   -2.4508    0.4993 C   0  0  0  0  0  0  0  0  0  0  0  0
    0.1245   -3.0916   -0.7002 C   0  0  0  0  0  0  0  0  0  0  0  0
   -1.2102   -3.2869   -1.0630 C   0  0  0  0  0  0  0  0  0  0  0  0
   -2.2686   -2.8511   -0.2351 C   0  0  0  0  0  0  0  0  0  0  0  0
   -3.5242   -3.1014   -0.6863 O   0  0  0  0  0  0  0  0  0  0  0  0
   -4.7830   -2.9194   -0.1417 C   0  0  0  0  0  0  0  0  0  0  0  0
   -5.5754   -2.0207   -1.1101 C   0  0  0  0  0  0  0  0  0  0  0  0
   -7.0644   -2.0586   -1.0436 N   0  3  0  0  0  0  0  0  0  0  0  0
   -7.6665   -3.2933   -1.6388 C   0  0  0  0  0  0  0  0  0  0  0  0
   -7.9555   -4.4658   -0.6814 C   0  0  0  0  0  0  0  0  0  0  0  0
   -7.6295   -1.6405    0.2602 C   0  0  0  0  0  0  0  0  0  0  0  0
   -9.1275   -1.2973    0.1540 C   0  0  0  0  0  0  0  0  0  0  0  0
   -1.9726   -2.1932    0.9922 C   0  0  0  0  0  0  0  0  0  0  0  0
   -0.6180   -2.0067    1.3317 C   0  0  0  0  0  0  0  0  0  0  0  0
    0.0225   -1.3881    2.5046 C   0  0  0  0  0  0  0  0  0  0  0  0
   -0.5457   -0.8870    3.4618 O   0  0  0  0  0  0  0  0  0  0  0  0
    1.4790   -1.5122    2.3169 C   0  0  0  0  0  0  0  0  0  0  0  0
    2.5594   -1.1326    3.1308 C   0  0  0  0  0  0  0  0  0  0  0  0
    9.1542   -1.9195    6.1656 H   0  0  0  0  0  0  0  0  0  0  0  0
    8.6127   -0.6075    7.2532 H   0  0  0  0  0  0  0  0  0  0  0  0
   10.3311   -0.7382    6.7916 H   0  0  0  0  0  0  0  0  0  0  0  0
    9.3814    1.1040    5.4340 H   0  0  0  0  0  0  0  0  0  0  0  0
    9.8682   -0.2953    4.4449 H   0  0  0  0  0  0  0  0  0  0  0  0
    7.9458    0.3459    3.5460 H   0  0  0  0  0  0  0  0  0  0  0  0
    5.8368    0.9400    4.5174 H   0  0  0  0  0  0  0  0  0  0  0  0
    7.1856    2.0396    4.8751 H   0  0  0  0  0  0  0  0  0  0  0  0
    7.4150    1.1671    7.1555 H   0  0  0  0  0  0  0  0  0  0  0  0
    5.7479    1.6733    6.8382 H   0  0  0  0  0  0  0  0  0  0  0  0
    6.1254   -0.0863    6.8428 H   0  0  0  0  0  0  0  0  0  0  0  0
    6.8279   -1.7452    5.3653 H   0  0  0  0  0  0  0  0  0  0  0  0
    8.0881   -2.0242    4.1230 H   0  0  0  0  0  0  0  0  0  0  0  0
    6.1544   -2.7017    3.1507 H   0  0  0  0  0  0  0  0  0  0  0  0
    6.6284   -1.1785    2.3065 H   0  0  0  0  0  0  0  0  0  0  0  0
    5.0482   -2.3101    1.0655 H   0  0  0  0  0  0  0  0  0  0  0  0
    3.1127   -2.9263   -0.3069 H   0  0  0  0  0  0  0  0  0  0  0  0
    0.9242   -3.4386   -1.3410 H   0  0  0  0  0  0  0  0  0  0  0  0
   -1.4342   -3.7892   -1.9960 H   0  0  0  0  0  0  0  0  0  0  0  0
   -4.7813   -2.5156    0.8914 H   0  0  0  0  0  0  0  0  0  0  0  0
   -5.2185   -3.9249   -0.1149 H   0  0  0  0  0  0  0  0  0  0  0  0
   -5.2819   -2.2943   -2.1493 H   0  0  0  0  0  0  0  0  0  0  0  0
   -5.2084   -0.9785   -0.9647 H   0  0  0  0  0  0  0  0  0  0  0  0
   -7.3249   -1.2987   -1.7191 H   0  0  0  0  0  0  0  0  0  0  0  0
   -7.0372   -3.6636   -2.4784 H   0  0  0  0  0  0  0  0  0  0  0  0
   -8.6461   -3.0301   -2.0975 H   0  0  0  0  0  0  0  0  0  0  0  0
   -7.0619   -4.8754   -0.1891 H   0  0  0  0  0  0  0  0  0  0  0  0
   -8.4062   -5.2944   -1.2681 H   0  0  0  0  0  0  0  0  0  0  0  0
   -8.6904   -4.1875    0.0989 H   0  0  0  0  0  0  0  0  0  0  0  0
   -7.1148   -0.7191    0.6116 H   0  0  0  0  0  0  0  0  0  0  0  0
   -7.4691   -2.4242    1.0307 H   0  0  0  0  0  0  0  0  0  0  0  0
   -9.2827   -0.4781   -0.5806 H   0  0  0  0  0  0  0  0  0  0  0  0
   -9.5111   -0.9622    1.1397 H   0  0  0  0  0  0  0  0  0  0  0  0
   -9.7340   -2.1680   -0.1671 H   0  0  0  0  0  0  0  0  0  0  0  0
   -2.7527   -1.8440    1.6537 H   0  0  0  0  0  0  0  0  0  0  0  0
    2.3869   -0.6509    4.0846 H   0  0  0  0  0  0  0  0  0  0  0  0
  1 31  1  0  0  0  0
  1 32  1  0  0  0  0
  1 33  1  0  0  0  0
  2  1  1  0  0  0  0
  2 34  1  0  0  0  0
  2 35  1  0  0  0  0
  3  2  1  0  0  0  0
  3 36  1  0  0  0  0
  4  3  1  0  0  0  0
  4 37  1  0  0  0  0
  4 38  1  0  0  0  0
  5  4  1  0  0  0  0
  5 39  1  0  0  0  0
  5 40  1  0  0  0  0
  5 41  1  0  0  0  0
  6  3  1  0  0  0  0
  6 42  1  0  0  0  0
  6 43  1  0  0  0  0
  7  6  1  0  0  0  0
  7 44  1  0  0  0  0
  7 45  1  0  0  0  0
  8  7  1  0  0  0  0
  9  8  1  0  0  0  0
 10  9  2  0  0  0  0
 10 46  1  0  0  0  0
 11 10  1  0  0  0  0
 11 47  1  0  0  0  0
 12 11  2  0  0  0  0
 13 12  1  0  0  0  0
 14 13  2  0  0  0  0
 14 48  1  0  0  0  0
 15 14  1  0  0  0  0
 15 49  1  0  0  0  0
 16 15  2  0  0  0  0
 17 16  1  0  0  0  0
 18 17  1  0  0  0  0
 18 50  1  0  0  0  0
 18 51  1  0  0  0  0
 19 18  1  0  0  0  0
 19 52  1  0  0  0  0
 19 53  1  0  0  0  0
 20 19  1  0  0  0  0
 20 54  1  0  0  0  0
 21 20  1  0  0  0  0
 21 55  1  0  0  0  0
 21 56  1  0  0  0  0
 22 21  1  0  0  0  0
 22 57  1  0  0  0  0
 22 58  1  0  0  0  0
 22 59  1  0  0  0  0
 23 20  1  0  0  0  0
 23 60  1  0  0  0  0
 23 61  1  0  0  0  0
 24 23  1  0  0  0  0
 24 62  1  0  0  0  0
 24 63  1  0  0  0  0
 24 64  1  0  0  0  0
 25 16  1  0  0  0  0
 25 65  1  0  0  0  0
 26 25  2  0  0  0  0
 26 13  1  0  0  0  0
 27 26  1  0  0  0  0
 28 27  2  0  0  0  0
 29 27  1  0  0  0  0
 29 12  1  0  0  0  0
 30 29  2  0  0  0  0
 30  9  1  0  0  0  0
 30 66  1  0  0  0  0
M  CHG  2   3   1  20   1
M  END
>  <MOL Chiral Flag>
0

>  <energy>
126.06816269885263

$$$$
