>541.sdf
 OpenBabel10062215123D

 35 38  0  0  0  0  0  0  0  0999 V2000
   10.5803   -3.6900    1.9479 C   0  0  0  0  0  0  0  0  0  0  0  0
    9.6418   -3.0926    1.1252 O   0  0  0  0  0  0  0  0  0  0  0  0
    9.1633   -3.6478   -0.0195 C   0  0  0  0  0  0  0  0  0  0  0  0
    9.7066   -4.6303   -0.5077 O   0  0  0  0  0  0  0  0  0  0  0  0
    7.8763   -3.1629   -0.5733 C   0  0  0  0  0  0  0  0  0  0  0  0
    7.2115   -3.8669   -1.5111 C   0  0  0  0  0  0  0  0  0  0  0  0
    5.9264   -3.5207   -1.7757 O   0  0  0  0  0  0  0  0  0  0  0  0
    5.1208   -3.2281   -0.6787 C   0  0  2  0  0  0  0  0  0  0  0  0
    3.8175   -2.8962   -1.0804 O   0  0  0  0  0  0  0  0  0  0  0  0
    3.6167   -1.5312   -0.7922 C   0  0  1  0  0  0  0  0  0  0  0  0
    2.7936   -1.2818    0.4477 C   0  0  0  0  0  0  0  0  0  0  0  0
    1.6391   -1.8611    0.8333 C   0  0  0  0  0  0  0  0  0  0  0  0
    0.9501   -2.9546    0.0687 C   0  0  0  0  0  0  0  0  0  0  0  0
    3.4827   -0.2562    1.1993 C   0  0  0  0  0  0  0  0  0  0  0  0
    3.0676    0.2845    2.2113 O   0  0  0  0  0  0  0  0  0  0  0  0
    4.6758    0.0138    0.6606 O   0  0  0  0  0  0  0  0  0  0  0  0
    4.9586   -0.8917   -0.3481 C   0  0  2  0  0  0  0  0  0  0  0  0
    5.9021   -0.3554   -1.3589 C   0  0  0  0  0  0  0  0  0  0  0  0
    7.1579   -0.8813   -1.1931 C   0  0  0  0  0  0  0  0  0  0  0  0
    7.2173   -1.8837   -0.0768 C   0  0  1  0  0  0  0  0  0  0  0  0
    5.7060   -2.0978    0.2023 C   0  0  2  0  0  0  0  0  0  0  0  0
   10.9143   -4.6826    1.5747 H   0  0  0  0  0  0  0  0  0  0  0  0
   10.1259   -3.8471    2.9495 H   0  0  0  0  0  0  0  0  0  0  0  0
   11.4612   -3.0272    2.0539 H   0  0  0  0  0  0  0  0  0  0  0  0
    7.6314   -4.7570   -1.9681 H   0  0  0  0  0  0  0  0  0  0  0  0
    5.0768   -4.1497   -0.0544 H   0  0  0  0  0  0  0  0  0  0  0  0
    3.1392   -1.0013   -1.6449 H   0  0  0  0  0  0  0  0  0  0  0  0
    1.1905   -1.5546    1.7739 H   0  0  0  0  0  0  0  0  0  0  0  0
    0.9276   -3.8660    0.7047 H   0  0  0  0  0  0  0  0  0  0  0  0
    1.4454   -3.2103   -0.8860 H   0  0  0  0  0  0  0  0  0  0  0  0
   -0.0913   -2.6483   -0.1525 H   0  0  0  0  0  0  0  0  0  0  0  0
    5.6695    0.4257   -2.0712 H   0  0  0  0  0  0  0  0  0  0  0  0
    8.0143   -0.5557   -1.7702 H   0  0  0  0  0  0  0  0  0  0  0  0
    7.7619   -1.3898    0.7558 H   0  0  0  0  0  0  0  0  0  0  0  0
    5.4278   -2.3410    1.2528 H   0  0  0  0  0  0  0  0  0  0  0  0
  1 22  1  0  0  0  0
  1 23  1  0  0  0  0
  1 24  1  0  0  0  0
  2  1  1  0  0  0  0
  3  2  1  0  0  0  0
  4  3  2  0  0  0  0
  5  3  1  0  0  0  0
  6  5  2  0  0  0  0
  6 25  1  0  0  0  0
  7  6  1  0  0  0  0
  8  7  1  0  0  0  0
  8 26  1  1  0  0  0
  9  8  1  0  0  0  0
 10  9  1  0  0  0  0
 10 27  1  6  0  0  0
 11 10  1  0  0  0  0
 12 11  2  0  0  0  0
 12 28  1  0  0  0  0
 13 12  1  0  0  0  0
 13 29  1  0  0  0  0
 13 30  1  0  0  0  0
 13 31  1  0  0  0  0
 14 11  1  0  0  0  0
 15 14  2  0  0  0  0
 16 14  1  0  0  0  0
 17 16  1  1  0  0  0
 17 10  1  0  0  0  0
 18 17  1  0  0  0  0
 18 32  1  0  0  0  0
 19 18  2  0  0  0  0
 19 33  1  0  0  0  0
 20 19  1  0  0  0  0
 20  5  1  0  0  0  0
 20 34  1  1  0  0  0
 21 20  1  0  0  0  0
 21  8  1  0  0  0  0
 21 17  1  0  0  0  0
 21 35  1  1  0  0  0
M  END
>  <MOL Chiral Flag>
0

>  <energy>
27.312585781696264

$$$$
