>547.sdf
 OpenBabel10062215153D

 65 70  0  0  0  0  0  0  0  0999 V2000
   -5.4344   -2.8139   -1.0130 C   0  0  0  0  0  0  0  0  0  0  0  0
   -4.8384   -2.4918    0.3542 C   0  0  0  0  0  0  0  0  0  0  0  0
   -3.5924   -1.6445    0.2618 C   0  0  0  0  0  0  0  0  0  0  0  0
   -3.5315   -0.3914    0.8907 C   0  0  0  0  0  0  0  0  0  0  0  0
   -2.3500    0.3587    0.8666 C   0  0  0  0  0  0  0  0  0  0  0  0
   -1.1992   -0.1364    0.2151 C   0  0  0  0  0  0  0  0  0  0  0  0
   -1.2923   -1.3729   -0.4530 C   0  0  0  0  0  0  0  0  0  0  0  0
   -2.4688   -2.1186   -0.4244 C   0  0  0  0  0  0  0  0  0  0  0  0
    0.1484    0.5944    0.2704 C   0  0  1  0  0  0  0  0  0  0  0  0
    0.7802    0.7866   -1.0556 N   0  0  0  0  0  0  0  0  0  0  0  0
    0.3356    1.9528   -1.8481 C   0  0  2  0  0  0  0  0  0  0  0  0
    0.6867    3.2657   -1.0847 C   0  0  0  0  0  0  0  0  0  0  0  0
    0.4038    3.1210    0.3806 C   0  0  0  0  0  0  0  0  0  0  0  0
    0.1371    1.9118    0.9923 C   0  0  0  0  0  0  0  0  0  0  0  0
   -0.0363    2.0800    2.3223 N   0  0  0  0  0  0  0  0  0  0  0  0
    0.1411    3.3927    2.5567 C   0  0  0  0  0  0  0  0  0  0  0  0
    0.0961    4.0429    3.7857 C   0  0  0  0  0  0  0  0  0  0  0  0
    0.3348    5.4290    3.8059 C   0  0  0  0  0  0  0  0  0  0  0  0
    0.6092    6.1247    2.6043 C   0  0  0  0  0  0  0  0  0  0  0  0
    0.6520    5.4362    1.3751 C   0  0  0  0  0  0  0  0  0  0  0  0
    0.4148    4.0631    1.3884 C   0  0  0  0  0  0  0  0  0  0  0  0
   -1.1494    1.8318   -2.1362 C   0  0  0  0  0  0  0  0  0  0  0  0
   -1.5520    0.8882   -2.8028 O   0  0  0  0  0  0  0  0  0  0  0  0
   -2.0218    2.7526   -1.6394 O   0  0  0  0  0  0  0  0  0  0  0  0
   -3.3961    2.7041   -1.7831 C   0  0  0  0  0  0  0  0  0  0  0  0
    1.8781    0.0309   -1.4651 C   0  0  0  0  0  0  0  0  0  0  0  0
    2.4974    0.3681   -2.4632 O   0  0  0  0  0  0  0  0  0  0  0  0
    2.3617   -1.2004   -0.7248 C   0  0  0  0  0  0  0  0  0  0  0  0
    1.6105   -1.8069    0.0182 O   0  0  0  0  0  0  0  0  0  0  0  0
    3.7305   -1.7511   -0.8438 C   0  0  0  0  0  0  0  0  0  0  0  0
    4.0433   -2.8070   -0.1793 N   0  0  0  0  0  0  0  0  0  0  0  0
    5.3836   -3.0822   -0.3684 C   0  0  0  0  0  0  0  0  0  0  0  0
    6.0984   -4.1284    0.2023 C   0  0  0  0  0  0  0  0  0  0  0  0
    7.4671   -4.2244   -0.0856 C   0  0  0  0  0  0  0  0  0  0  0  0
    8.0779   -3.2745   -0.9338 C   0  0  0  0  0  0  0  0  0  0  0  0
    7.3159   -2.2283   -1.4956 C   0  0  0  0  0  0  0  0  0  0  0  0
    5.9554   -2.1590   -1.1887 C   0  0  0  0  0  0  0  0  0  0  0  0
    4.9118   -1.1593   -1.6167 C   0  0  0  0  0  0  0  0  0  0  0  0
   -5.7215   -1.8791   -1.5373 H   0  0  0  0  0  0  0  0  0  0  0  0
   -4.7130   -3.3805   -1.6381 H   0  0  0  0  0  0  0  0  0  0  0  0
   -6.3384   -3.4446   -0.8768 H   0  0  0  0  0  0  0  0  0  0  0  0
   -5.6137   -1.9791    0.9636 H   0  0  0  0  0  0  0  0  0  0  0  0
   -4.5789   -3.4438    0.8673 H   0  0  0  0  0  0  0  0  0  0  0  0
   -4.3904   -0.0057    1.4250 H   0  0  0  0  0  0  0  0  0  0  0  0
   -2.3364    1.3043    1.3879 H   0  0  0  0  0  0  0  0  0  0  0  0
   -0.4562   -1.7797   -0.9921 H   0  0  0  0  0  0  0  0  0  0  0  0
   -2.4938   -3.0794   -0.9224 H   0  0  0  0  0  0  0  0  0  0  0  0
    0.8054    0.0085    0.9233 H   0  0  0  0  0  0  0  0  0  0  0  0
    0.8314    2.0228   -2.8410 H   0  0  0  0  0  0  0  0  0  0  0  0
    1.7723    3.4835   -1.1721 H   0  0  0  0  0  0  0  0  0  0  0  0
    0.1341    4.1208   -1.5323 H   0  0  0  0  0  0  0  0  0  0  0  0
   -0.2275    1.3345    3.0284 H   0  0  0  0  0  0  0  0  0  0  0  0
   -0.1082    3.4979    4.6983 H   0  0  0  0  0  0  0  0  0  0  0  0
    0.3112    5.9639    4.7465 H   0  0  0  0  0  0  0  0  0  0  0  0
    0.7918    7.1909    2.6315 H   0  0  0  0  0  0  0  0  0  0  0  0
    0.8665    5.9594    0.4524 H   0  0  0  0  0  0  0  0  0  0  0  0
   -3.7424    3.6261   -2.2941 H   0  0  0  0  0  0  0  0  0  0  0  0
   -3.7401    1.8237   -2.3664 H   0  0  0  0  0  0  0  0  0  0  0  0
   -3.8629    2.6603   -0.7771 H   0  0  0  0  0  0  0  0  0  0  0  0
    5.6120   -4.8419    0.8561 H   0  0  0  0  0  0  0  0  0  0  0  0
    8.0522   -5.0247    0.3486 H   0  0  0  0  0  0  0  0  0  0  0  0
    9.1354   -3.3501   -1.1478 H   0  0  0  0  0  0  0  0  0  0  0  0
    7.7777   -1.4938   -2.1411 H   0  0  0  0  0  0  0  0  0  0  0  0
    5.1644   -0.1395   -1.2575 H   0  0  0  0  0  0  0  0  0  0  0  0
    4.7479   -1.1707   -2.7149 H   0  0  0  0  0  0  0  0  0  0  0  0
  1 39  1  0  0  0  0
  1 40  1  0  0  0  0
  1 41  1  0  0  0  0
  2  1  1  0  0  0  0
  2 42  1  0  0  0  0
  2 43  1  0  0  0  0
  3  2  1  0  0  0  0
  4  3  2  0  0  0  0
  4 44  1  0  0  0  0
  5  4  1  0  0  0  0
  5 45  1  0  0  0  0
  6  5  2  0  0  0  0
  7  6  1  0  0  0  0
  7 46  1  0  0  0  0
  8  7  2  0  0  0  0
  8  3  1  0  0  0  0
  8 47  1  0  0  0  0
  9  6  1  0  0  0  0
  9 48  1  1  0  0  0
 10  9  1  0  0  0  0
 11 10  1  0  0  0  0
 11 49  1  6  0  0  0
 12 11  1  0  0  0  0
 12 50  1  0  0  0  0
 12 51  1  0  0  0  0
 13 12  1  0  0  0  0
 14 13  2  0  0  0  0
 14  9  1  0  0  0  0
 15 14  1  0  0  0  0
 15 52  1  0  0  0  0
 16 15  1  0  0  0  0
 17 16  2  0  0  0  0
 17 53  1  0  0  0  0
 18 17  1  0  0  0  0
 18 54  1  0  0  0  0
 19 18  2  0  0  0  0
 19 55  1  0  0  0  0
 20 19  1  0  0  0  0
 20 56  1  0  0  0  0
 21 20  2  0  0  0  0
 21 13  1  0  0  0  0
 21 16  1  0  0  0  0
 22 11  1  0  0  0  0
 23 22  2  0  0  0  0
 24 22  1  0  0  0  0
 25 24  1  0  0  0  0
 25 57  1  0  0  0  0
 25 58  1  0  0  0  0
 25 59  1  0  0  0  0
 26 10  1  0  0  0  0
 27 26  2  0  0  0  0
 28 26  1  0  0  0  0
 29 28  2  0  0  0  0
 30 28  1  0  0  0  0
 31 30  2  0  0  0  0
 32 31  1  0  0  0  0
 33 32  2  0  0  0  0
 33 60  1  0  0  0  0
 34 33  1  0  0  0  0
 34 61  1  0  0  0  0
 35 34  2  0  0  0  0
 35 62  1  0  0  0  0
 36 35  1  0  0  0  0
 36 63  1  0  0  0  0
 37 36  2  0  0  0  0
 37 32  1  0  0  0  0
 38 37  1  0  0  0  0
 38 30  1  0  0  0  0
 38 64  1  0  0  0  0
 38 65  1  0  0  0  0
M  END
>  <MOL Chiral Flag>
0

>  <energy>
140.00896824095773

$$$$
