>549.sdf
 OpenBabel10062215163D

 48 49  0  0  0  0  0  0  0  0999 V2000
   10.9326   -0.9895   -3.3417 C   0  0  0  0  0  0  0  0  0  0  0  0
    9.6286   -1.2986   -3.6914 O   0  0  0  0  0  0  0  0  0  0  0  0
    8.5328   -1.4096   -2.8881 C   0  0  0  0  0  0  0  0  0  0  0  0
    8.5813   -1.2797   -1.4832 C   0  0  0  0  0  0  0  0  0  0  0  0
    7.4144   -1.4012   -0.7237 C   0  0  0  0  0  0  0  0  0  0  0  0
    6.1766   -1.6508   -1.3362 C   0  0  0  0  0  0  0  0  0  0  0  0
    4.9463   -1.7437   -0.4475 C   0  0  0  0  0  0  0  0  0  0  0  0
    3.6750   -1.9299   -1.1720 N   0  3  0  0  0  0  0  0  0  0  0  0
    2.5358   -1.8470   -0.2384 C   0  0  0  0  0  0  0  0  0  0  0  0
    1.1914   -1.8179   -0.9956 C   0  0  0  0  0  0  0  0  0  0  0  0
    0.0581   -1.5192   -0.0962 N   0  3  0  0  0  0  0  0  0  0  0  0
   -0.5131   -2.6952    0.5998 C   0  0  0  0  0  0  0  0  0  0  0  0
   -1.8424   -3.0966   -0.0163 C   0  0  0  0  0  0  0  0  0  0  0  0
   -3.0357   -2.9204    0.7062 C   0  0  0  0  0  0  0  0  0  0  0  0
   -4.2695   -3.2277    0.1245 C   0  0  0  0  0  0  0  0  0  0  0  0
   -4.3289   -3.7274   -1.1922 C   0  0  0  0  0  0  0  0  0  0  0  0
   -5.5068   -4.0189   -1.8071 O   0  0  0  0  0  0  0  0  0  0  0  0
   -6.7600   -3.8033   -1.2694 C   0  0  0  0  0  0  0  0  0  0  0  0
   -3.1375   -3.9223   -1.9011 C   0  0  0  0  0  0  0  0  0  0  0  0
   -1.9035   -3.6068   -1.3223 C   0  0  0  0  0  0  0  0  0  0  0  0
    6.1295   -1.7863   -2.7376 C   0  0  0  0  0  0  0  0  0  0  0  0
    7.2980   -1.6673   -3.4979 C   0  0  0  0  0  0  0  0  0  0  0  0
   11.2483   -0.0845   -3.9008 H   0  0  0  0  0  0  0  0  0  0  0  0
   11.0882   -0.7875   -2.2690 H   0  0  0  0  0  0  0  0  0  0  0  0
   11.5942   -1.8299   -3.6361 H   0  0  0  0  0  0  0  0  0  0  0  0
    9.5000   -1.0850   -0.9560 H   0  0  0  0  0  0  0  0  0  0  0  0
    7.4727   -1.2916    0.3525 H   0  0  0  0  0  0  0  0  0  0  0  0
    4.9010   -0.7877    0.1227 H   0  0  0  0  0  0  0  0  0  0  0  0
    5.0902   -2.5755    0.2775 H   0  0  0  0  0  0  0  0  0  0  0  0
    3.6660   -2.8584   -1.6560 H   0  0  0  0  0  0  0  0  0  0  0  0
    3.5792   -1.1567   -1.8718 H   0  0  0  0  0  0  0  0  0  0  0  0
    2.6131   -0.8952    0.3350 H   0  0  0  0  0  0  0  0  0  0  0  0
    2.5566   -2.6934    0.4832 H   0  0  0  0  0  0  0  0  0  0  0  0
    1.0321   -2.7582   -1.5647 H   0  0  0  0  0  0  0  0  0  0  0  0
    1.2596   -0.9908   -1.7368 H   0  0  0  0  0  0  0  0  0  0  0  0
   -0.6910   -1.0409   -0.6510 H   0  0  0  0  0  0  0  0  0  0  0  0
    0.3613   -0.8087    0.6106 H   0  0  0  0  0  0  0  0  0  0  0  0
   -0.6958   -2.4099    1.6609 H   0  0  0  0  0  0  0  0  0  0  0  0
    0.1917   -3.5554    0.6319 H   0  0  0  0  0  0  0  0  0  0  0  0
   -3.0142   -2.5229    1.7133 H   0  0  0  0  0  0  0  0  0  0  0  0
   -5.1705   -3.0644    0.7003 H   0  0  0  0  0  0  0  0  0  0  0  0
   -6.8913   -4.3963   -0.3397 H   0  0  0  0  0  0  0  0  0  0  0  0
   -6.9061   -2.7217   -1.0584 H   0  0  0  0  0  0  0  0  0  0  0  0
   -7.5286   -4.1226   -2.0029 H   0  0  0  0  0  0  0  0  0  0  0  0
   -3.1695   -4.3073   -2.9126 H   0  0  0  0  0  0  0  0  0  0  0  0
   -1.0009   -3.7537   -1.8971 H   0  0  0  0  0  0  0  0  0  0  0  0
    5.2000   -1.9808   -3.2529 H   0  0  0  0  0  0  0  0  0  0  0  0
    7.2439   -1.7715   -4.5747 H   0  0  0  0  0  0  0  0  0  0  0  0
  1 23  1  0  0  0  0
  1 24  1  0  0  0  0
  1 25  1  0  0  0  0
  2  1  1  0  0  0  0
  3  2  1  0  0  0  0
  4  3  2  0  0  0  0
  4 26  1  0  0  0  0
  5  4  1  0  0  0  0
  5 27  1  0  0  0  0
  6  5  2  0  0  0  0
  7  6  1  0  0  0  0
  7 28  1  0  0  0  0
  7 29  1  0  0  0  0
  8  7  1  0  0  0  0
  8 30  1  0  0  0  0
  8 31  1  0  0  0  0
  9  8  1  0  0  0  0
  9 32  1  0  0  0  0
  9 33  1  0  0  0  0
 10  9  1  0  0  0  0
 10 34  1  0  0  0  0
 10 35  1  0  0  0  0
 11 10  1  0  0  0  0
 11 36  1  0  0  0  0
 11 37  1  0  0  0  0
 12 11  1  0  0  0  0
 12 38  1  0  0  0  0
 12 39  1  0  0  0  0
 13 12  1  0  0  0  0
 14 13  2  0  0  0  0
 14 40  1  0  0  0  0
 15 14  1  0  0  0  0
 15 41  1  0  0  0  0
 16 15  2  0  0  0  0
 17 16  1  0  0  0  0
 18 17  1  0  0  0  0
 18 42  1  0  0  0  0
 18 43  1  0  0  0  0
 18 44  1  0  0  0  0
 19 16  1  0  0  0  0
 19 45  1  0  0  0  0
 20 19  2  0  0  0  0
 20 13  1  0  0  0  0
 20 46  1  0  0  0  0
 21  6  1  0  0  0  0
 21 47  1  0  0  0  0
 22 21  2  0  0  0  0
 22  3  1  0  0  0  0
 22 48  1  0  0  0  0
M  CHG  2   8   1  11   1
M  END
>  <MOL Chiral Flag>
0

>  <energy>
67.532340821497584

$$$$
