>55.sdf
 OpenBabel10042212333D

 36 39  0  0  0  0  0  0  0  0999 V2000
   -6.2515    2.5332   -0.4049 Cl  0  0  0  0  0  0  0  0  0  0  0  0
   -4.9554    1.3912   -0.3353 C   0  0  0  0  0  0  0  0  0  0  0  0
   -3.6679    1.8878   -0.1306 C   0  0  0  0  0  0  0  0  0  0  0  0
   -2.5686    1.0416   -0.1000 C   0  0  0  0  0  0  0  0  0  0  0  0
   -2.7641   -0.3510   -0.2290 C   0  0  0  0  0  0  0  0  0  0  0  0
   -4.0537   -0.8443   -0.4030 C   0  0  0  0  0  0  0  0  0  0  0  0
   -5.1480    0.0196   -0.4825 C   0  0  0  0  0  0  0  0  0  0  0  0
   -6.7017   -0.6672   -0.7945 Cl  0  0  0  0  0  0  0  0  0  0  0  0
   -1.7259   -1.2046   -0.2160 N   0  0  0  0  0  0  0  0  0  0  0  0
   -0.4774   -0.6677   -0.0937 C   0  0  0  0  0  0  0  0  0  0  0  0
    0.6154   -1.6429   -0.1362 C   0  0  0  0  0  0  0  0  0  0  0  0
    0.8545   -2.4836    0.9669 C   0  0  0  0  0  0  0  0  0  0  0  0
    1.9248   -3.3786    0.9534 C   0  0  0  0  0  0  0  0  0  0  0  0
    2.7499   -3.4606   -0.1711 C   0  0  0  0  0  0  0  0  0  0  0  0
    2.5121   -2.6520   -1.2845 C   0  0  0  0  0  0  0  0  0  0  0  0
    1.4499   -1.7460   -1.2669 C   0  0  0  0  0  0  0  0  0  0  0  0
   -0.2813    0.7120    0.0530 C   0  0  0  0  0  0  0  0  0  0  0  0
   -1.3376    1.5698    0.0436 N   0  0  0  0  0  0  0  0  0  0  0  0
    1.0271    1.3606    0.2500 C   0  0  0  0  0  0  0  0  0  0  0  0
    1.7671    1.1588    1.4292 C   0  0  0  0  0  0  0  0  0  0  0  0
    2.9929    1.8004    1.6270 C   0  0  0  0  0  0  0  0  0  0  0  0
    3.4983    2.6581    0.6520 C   0  0  0  0  0  0  0  0  0  0  0  0
    2.7839    2.8694   -0.5252 C   0  0  0  0  0  0  0  0  0  0  0  0
    1.5547    2.2305   -0.7209 C   0  0  0  0  0  0  0  0  0  0  0  0
   -3.4972    2.9563   -0.0096 H   0  0  0  0  0  0  0  0  0  0  0  0
   -4.1977   -1.9204   -0.4998 H   0  0  0  0  0  0  0  0  0  0  0  0
    0.2125   -2.4349    1.8476 H   0  0  0  0  0  0  0  0  0  0  0  0
    2.1166   -4.0037    1.8257 H   0  0  0  0  0  0  0  0  0  0  0  0
    3.5789   -4.1633   -0.1770 H   0  0  0  0  0  0  0  0  0  0  0  0
    3.1489   -2.7218   -2.1664 H   0  0  0  0  0  0  0  0  0  0  0  0
    1.2778   -1.1224   -2.1446 H   0  0  0  0  0  0  0  0  0  0  0  0
    1.3839    0.5082    2.2130 H   0  0  0  0  0  0  0  0  0  0  0  0
    3.5503    1.6385    2.5463 H   0  0  0  0  0  0  0  0  0  0  0  0
    4.4457    3.1688    0.8103 H   0  0  0  0  0  0  0  0  0  0  0  0
    3.1795    3.5400   -1.2849 H   0  0  0  0  0  0  0  0  0  0  0  0
    1.0031    2.4198   -1.6415 H   0  0  0  0  0  0  0  0  0  0  0  0
  2  1  1  0  0  0  0
  3  2  2  0  0  0  0
  3 25  1  0  0  0  0
  4  3  1  0  0  0  0
  5  4  2  0  0  0  0
  6  5  1  0  0  0  0
  6 26  1  0  0  0  0
  7  6  2  0  0  0  0
  7  2  1  0  0  0  0
  8  7  1  0  0  0  0
  9  5  1  0  0  0  0
 10  9  2  0  0  0  0
 11 10  1  0  0  0  0
 12 11  2  0  0  0  0
 12 27  1  0  0  0  0
 13 12  1  0  0  0  0
 13 28  1  0  0  0  0
 14 13  2  0  0  0  0
 14 29  1  0  0  0  0
 15 14  1  0  0  0  0
 15 30  1  0  0  0  0
 16 15  2  0  0  0  0
 16 11  1  0  0  0  0
 16 31  1  0  0  0  0
 17 10  1  0  0  0  0
 18 17  2  0  0  0  0
 18  4  1  0  0  0  0
 19 17  1  0  0  0  0
 20 19  2  0  0  0  0
 20 32  1  0  0  0  0
 21 20  1  0  0  0  0
 21 33  1  0  0  0  0
 22 21  2  0  0  0  0
 22 34  1  0  0  0  0
 23 22  1  0  0  0  0
 23 35  1  0  0  0  0
 24 23  2  0  0  0  0
 24 19  1  0  0  0  0
 24 36  1  0  0  0  0
M  END
>  <energy>
133.58742848068974

$$$$
