>556.sdf
 OpenBabel10062215203D

 60 65  0  0  0  0  0  0  0  0999 V2000
   -4.2492    2.5635   -2.8446 C   0  0  0  0  0  0  0  0  0  0  0  0
   -4.4380    1.1145   -2.8758 N   0  0  0  0  0  0  0  0  0  0  0  0
   -5.5721    0.3984   -2.6335 C   0  0  0  0  0  0  0  0  0  0  0  0
   -6.8468    0.8638   -2.2952 C   0  0  0  0  0  0  0  0  0  0  0  0
   -7.8706   -0.0859   -2.1077 C   0  0  0  0  0  0  0  0  0  0  0  0
   -7.6070   -1.4675   -2.2587 C   0  0  0  0  0  0  0  0  0  0  0  0
   -6.3166   -1.9140   -2.5969 C   0  0  0  0  0  0  0  0  0  0  0  0
   -5.3238   -0.9561   -2.7762 C   0  0  0  0  0  0  0  0  0  0  0  0
   -3.9979   -1.0640   -3.1138 C   0  0  0  0  0  0  0  0  0  0  0  0
   -3.2293   -2.1392   -3.3812 N   0  0  0  0  0  0  0  0  0  0  0  0
   -1.9498   -1.9356   -3.7259 N   0  0  0  0  0  0  0  0  0  0  0  0
   -1.4184   -0.6684   -3.7940 C   0  0  0  0  0  0  0  0  0  0  0  0
    0.2417   -0.4473   -4.4271 S   0  0  0  0  0  0  0  0  0  0  0  0
    1.0990   -0.2912   -2.8616 C   0  0  0  0  0  0  0  0  0  0  0  0
    1.8391    0.8197   -2.6252 N   0  0  0  0  0  0  0  0  0  0  0  0
    2.6113    0.9035   -1.5147 C   0  0  0  0  0  0  0  0  0  0  0  0
    2.6296   -0.1243   -0.6275 N   0  0  0  0  0  0  0  0  0  0  0  0
    1.8713   -1.2344   -0.8395 C   0  0  0  0  0  0  0  0  0  0  0  0
    1.1257   -1.3233   -1.9782 N   0  0  0  0  0  0  0  0  0  0  0  0
    1.8590   -2.2932    0.1285 N   0  0  0  0  0  0  0  0  0  0  0  0
    2.1385   -1.9260    1.5185 C   0  0  0  0  0  0  0  0  0  0  0  0
    2.5076   -3.1487    2.3653 C   0  0  0  0  0  0  0  0  0  0  0  0
    1.4445   -4.2376    2.2203 C   0  0  0  0  0  0  0  0  0  0  0  0
    1.3466   -4.6302    0.7462 C   0  0  0  0  0  0  0  0  0  0  0  0
    0.9491   -3.4140   -0.0998 C   0  0  0  0  0  0  0  0  0  0  0  0
    3.4590    2.0279   -1.3339 N   0  0  0  0  0  0  0  0  0  0  0  0
    4.8553    1.7458   -1.0254 C   0  0  0  0  0  0  0  0  0  0  0  0
    5.7111    2.9924   -1.2800 C   0  0  0  0  0  0  0  0  0  0  0  0
    5.1730    4.1668   -0.4602 C   0  0  0  0  0  0  0  0  0  0  0  0
    3.7142    4.4273   -0.8513 C   0  0  0  0  0  0  0  0  0  0  0  0
    2.8674    3.1654   -0.6411 C   0  0  0  0  0  0  0  0  0  0  0  0
   -2.1999    0.4215   -3.5158 N   0  0  0  0  0  0  0  0  0  0  0  0
   -3.4908    0.1960   -3.1717 C   0  0  0  0  0  0  0  0  0  0  0  0
   -3.9168    2.9175   -3.8428 H   0  0  0  0  0  0  0  0  0  0  0  0
   -3.4765    2.8207   -2.0902 H   0  0  0  0  0  0  0  0  0  0  0  0
   -5.1859    3.0921   -2.5795 H   0  0  0  0  0  0  0  0  0  0  0  0
   -7.0581    1.9173   -2.1816 H   0  0  0  0  0  0  0  0  0  0  0  0
   -8.8683    0.2443   -1.8485 H   0  0  0  0  0  0  0  0  0  0  0  0
   -8.4038   -2.1859   -2.1153 H   0  0  0  0  0  0  0  0  0  0  0  0
   -6.1060   -2.9687   -2.7186 H   0  0  0  0  0  0  0  0  0  0  0  0
    2.9758   -1.1989    1.5914 H   0  0  0  0  0  0  0  0  0  0  0  0
    1.2273   -1.4504    1.9450 H   0  0  0  0  0  0  0  0  0  0  0  0
    3.4871   -3.5496    2.0240 H   0  0  0  0  0  0  0  0  0  0  0  0
    2.6076   -2.8487    3.4311 H   0  0  0  0  0  0  0  0  0  0  0  0
    0.4599   -3.8680    2.5842 H   0  0  0  0  0  0  0  0  0  0  0  0
    1.7332   -5.1226    2.8270 H   0  0  0  0  0  0  0  0  0  0  0  0
    0.5991   -5.4410    0.6123 H   0  0  0  0  0  0  0  0  0  0  0  0
    2.3359   -5.0108    0.4065 H   0  0  0  0  0  0  0  0  0  0  0  0
   -0.0848   -3.0992    0.1612 H   0  0  0  0  0  0  0  0  0  0  0  0
    0.9667   -3.7281   -1.1665 H   0  0  0  0  0  0  0  0  0  0  0  0
    5.2349    0.9312   -1.6823 H   0  0  0  0  0  0  0  0  0  0  0  0
    4.9515    1.4199    0.0336 H   0  0  0  0  0  0  0  0  0  0  0  0
    6.7705    2.7881   -1.0157 H   0  0  0  0  0  0  0  0  0  0  0  0
    5.6674    3.2523   -2.3620 H   0  0  0  0  0  0  0  0  0  0  0  0
    5.2417    3.9275    0.6238 H   0  0  0  0  0  0  0  0  0  0  0  0
    5.7819    5.0750   -0.6589 H   0  0  0  0  0  0  0  0  0  0  0  0
    3.3006    5.2657   -0.2505 H   0  0  0  0  0  0  0  0  0  0  0  0
    3.6731    4.7126   -1.9251 H   0  0  0  0  0  0  0  0  0  0  0  0
    2.8106    2.9331    0.4468 H   0  0  0  0  0  0  0  0  0  0  0  0
    1.8367    3.3617   -1.0092 H   0  0  0  0  0  0  0  0  0  0  0  0
  1 34  1  0  0  0  0
  1 35  1  0  0  0  0
  1 36  1  0  0  0  0
  2  1  1  0  0  0  0
  3  2  1  0  0  0  0
  4  3  2  0  0  0  0
  4 37  1  0  0  0  0
  5  4  1  0  0  0  0
  5 38  1  0  0  0  0
  6  5  2  0  0  0  0
  6 39  1  0  0  0  0
  7  6  1  0  0  0  0
  7 40  1  0  0  0  0
  8  7  2  0  0  0  0
  8  3  1  0  0  0  0
  9  8  1  0  0  0  0
 10  9  2  0  0  0  0
 11 10  1  0  0  0  0
 12 11  2  0  0  0  0
 13 12  1  0  0  0  0
 14 13  1  0  0  0  0
 15 14  2  0  0  0  0
 16 15  1  0  0  0  0
 17 16  2  0  0  0  0
 18 17  1  0  0  0  0
 19 18  2  0  0  0  0
 19 14  1  0  0  0  0
 20 18  1  0  0  0  0
 21 20  1  0  0  0  0
 21 41  1  0  0  0  0
 21 42  1  0  0  0  0
 22 21  1  0  0  0  0
 22 43  1  0  0  0  0
 22 44  1  0  0  0  0
 23 22  1  0  0  0  0
 23 45  1  0  0  0  0
 23 46  1  0  0  0  0
 24 23  1  0  0  0  0
 24 47  1  0  0  0  0
 24 48  1  0  0  0  0
 25 24  1  0  0  0  0
 25 20  1  0  0  0  0
 25 49  1  0  0  0  0
 25 50  1  0  0  0  0
 26 16  1  0  0  0  0
 27 26  1  0  0  0  0
 27 51  1  0  0  0  0
 27 52  1  0  0  0  0
 28 27  1  0  0  0  0
 28 53  1  0  0  0  0
 28 54  1  0  0  0  0
 29 28  1  0  0  0  0
 29 55  1  0  0  0  0
 29 56  1  0  0  0  0
 30 29  1  0  0  0  0
 30 57  1  0  0  0  0
 30 58  1  0  0  0  0
 31 30  1  0  0  0  0
 31 26  1  0  0  0  0
 31 59  1  0  0  0  0
 31 60  1  0  0  0  0
 32 12  1  0  0  0  0
 33 32  2  0  0  0  0
 33  2  1  0  0  0  0
 33  9  1  0  0  0  0
M  END
>  <MOL Chiral Flag>
0

>  <energy>
-153.00683526051063

$$$$
