>56.sdf
 OpenBabel10052218133D

 36 38  0  0  0  0  0  0  0  0999 V2000
    4.1296    3.1878    0.7476 C   0  0  0  0  0  0  0  0  0  0  0  0
    4.2084    2.0877    1.5774 O   0  0  0  0  0  0  0  0  0  0  0  0
    3.5125    0.9487    1.3506 C   0  0  0  0  0  0  0  0  0  0  0  0
    2.8368    0.3573    2.4200 C   0  0  0  0  0  0  0  0  0  0  0  0
    2.0370   -0.7640    2.2122 C   0  0  0  0  0  0  0  0  0  0  0  0
    1.9051   -1.3121    0.9303 C   0  0  0  0  0  0  0  0  0  0  0  0
    0.9740   -2.3657    0.7319 N   0  0  0  0  0  0  0  0  0  0  0  0
   -0.3362   -2.0254    0.2592 C   0  0  0  0  0  0  0  0  0  0  0  0
   -1.4411   -2.7471    0.7350 C   0  0  0  0  0  0  0  0  0  0  0  0
   -2.7393   -2.3475    0.4186 C   0  0  0  0  0  0  0  0  0  0  0  0
   -2.9564   -1.2275   -0.3872 C   0  0  0  0  0  0  0  0  0  0  0  0
   -4.2268   -0.8148   -0.6318 N   0  0  0  0  0  0  0  0  0  0  0  0
   -4.4727    0.2819   -1.3902 C   0  0  0  0  0  0  0  0  0  0  0  0
   -5.8003    0.7286   -1.5739 N   0  0  0  0  0  0  0  0  0  0  0  0
   -3.4453    0.9675   -1.9516 N   0  0  0  0  0  0  0  0  0  0  0  0
   -2.1485    0.6055   -1.7544 C   0  0  0  0  0  0  0  0  0  0  0  0
   -1.1336    1.3718   -2.3895 N   0  0  0  0  0  0  0  0  0  0  0  0
   -1.8649   -0.5120   -0.9255 C   0  0  0  0  0  0  0  0  0  0  0  0
   -0.5557   -0.9194   -0.5942 C   0  0  0  0  0  0  0  0  0  0  0  0
    2.6249   -0.7587   -0.1393 C   0  0  0  0  0  0  0  0  0  0  0  0
    3.4263    0.3691    0.0679 C   0  0  0  0  0  0  0  0  0  0  0  0
    4.7870    3.9891    1.1398 H   0  0  0  0  0  0  0  0  0  0  0  0
    4.4337    2.9491   -0.2906 H   0  0  0  0  0  0  0  0  0  0  0  0
    3.0832    3.5681    0.7487 H   0  0  0  0  0  0  0  0  0  0  0  0
    2.8921    0.7995    3.4066 H   0  0  0  0  0  0  0  0  0  0  0  0
    1.4726   -1.1769    3.0390 H   0  0  0  0  0  0  0  0  0  0  0  0
    0.9953   -3.1182    1.4376 H   0  0  0  0  0  0  0  0  0  0  0  0
   -1.2966   -3.5928    1.3956 H   0  0  0  0  0  0  0  0  0  0  0  0
   -3.5797   -2.8940    0.8276 H   0  0  0  0  0  0  0  0  0  0  0  0
   -5.9902    1.5785   -2.1241 H   0  0  0  0  0  0  0  0  0  0  0  0
   -6.5815    0.2334   -1.1207 H   0  0  0  0  0  0  0  0  0  0  0  0
   -1.4008    2.1698   -2.9838 H   0  0  0  0  0  0  0  0  0  0  0  0
   -0.1356    1.1396   -2.3271 H   0  0  0  0  0  0  0  0  0  0  0  0
    0.2842   -0.3677   -0.9596 H   0  0  0  0  0  0  0  0  0  0  0  0
    2.5418   -1.1840   -1.1322 H   0  0  0  0  0  0  0  0  0  0  0  0
    3.9606    0.7945   -0.7704 H   0  0  0  0  0  0  0  0  0  0  0  0
  1 22  1  0  0  0  0
  1 23  1  0  0  0  0
  1 24  1  0  0  0  0
  2  1  1  0  0  0  0
  3  2  1  0  0  0  0
  4  3  2  0  0  0  0
  4 25  1  0  0  0  0
  5  4  1  0  0  0  0
  5 26  1  0  0  0  0
  6  5  2  0  0  0  0
  7  6  1  0  0  0  0
  7 27  1  0  0  0  0
  8  7  1  0  0  0  0
  9  8  2  0  0  0  0
  9 28  1  0  0  0  0
 10  9  1  0  0  0  0
 10 29  1  0  0  0  0
 11 10  2  0  0  0  0
 12 11  1  0  0  0  0
 13 12  2  0  0  0  0
 14 13  1  0  0  0  0
 14 30  1  0  0  0  0
 14 31  1  0  0  0  0
 15 13  1  0  0  0  0
 16 15  2  0  0  0  0
 17 16  1  0  0  0  0
 17 32  1  0  0  0  0
 17 33  1  0  0  0  0
 18 16  1  0  0  0  0
 18 11  1  0  0  0  0
 19 18  2  0  0  0  0
 19  8  1  0  0  0  0
 19 34  1  0  0  0  0
 20  6  1  0  0  0  0
 20 35  1  0  0  0  0
 21 20  2  0  0  0  0
 21  3  1  0  0  0  0
 21 36  1  0  0  0  0
M  END
>  <MOL Chiral Flag>
0

>  <energy>
-93.926365626716517

$$$$
