>562.sdf
 OpenBabel10062215263D

 47 48  0  0  0  0  0  0  0  0999 V2000
    5.2455    0.5346    1.8652 C   0  0  0  0  0  0  0  0  0  0  0  0
    4.9768    0.7938    0.5376 O   0  0  0  0  0  0  0  0  0  0  0  0
    3.7809    1.2070    0.0366 C   0  0  0  0  0  0  0  0  0  0  0  0
    2.6812    1.5115    0.8725 C   0  0  0  0  0  0  0  0  0  0  0  0
    1.4578    1.9421    0.3265 C   0  0  0  0  0  0  0  0  0  0  0  0
    0.3254    2.2542    1.2563 C   0  0  0  0  0  0  0  0  0  0  0  0
   -0.8551    2.7607    0.8474 C   0  0  0  0  0  0  0  0  0  0  0  0
   -1.9827    3.0450    1.7721 C   0  0  0  0  0  0  0  0  0  0  0  0
   -1.8958    2.7976    2.9659 O   0  0  0  0  0  0  0  0  0  0  0  0
   -3.2487    3.6420    1.2130 C   0  0  0  0  0  0  0  0  0  0  0  0
   -3.7892    2.7521    0.1262 C   0  0  0  0  0  0  0  0  0  0  0  0
   -3.7616    3.1413   -1.0330 O   0  0  0  0  0  0  0  0  0  0  0  0
   -4.3169    1.4040    0.4495 C   0  0  0  0  0  0  0  0  0  0  0  0
   -4.5251    0.4879   -0.5163 C   0  0  0  0  0  0  0  0  0  0  0  0
   -5.0619   -0.8786   -0.2708 C   0  0  0  0  0  0  0  0  0  0  0  0
   -5.7339   -1.2259    0.9166 C   0  0  0  0  0  0  0  0  0  0  0  0
   -6.2550   -2.5106    1.0796 C   0  0  0  0  0  0  0  0  0  0  0  0
   -6.0949   -3.4753    0.0755 C   0  0  0  0  0  0  0  0  0  0  0  0
   -6.5988   -4.7166    0.2377 O   0  0  0  0  0  0  0  0  0  0  0  0
   -5.4033   -3.1567   -1.1018 C   0  0  0  0  0  0  0  0  0  0  0  0
   -5.2467   -4.1275   -2.0439 O   0  0  0  0  0  0  0  0  0  0  0  0
   -4.2905   -4.1632   -3.0440 C   0  0  0  0  0  0  0  0  0  0  0  0
   -4.9067   -1.8474   -1.2764 C   0  0  0  0  0  0  0  0  0  0  0  0
    1.3445    2.0539   -1.0765 C   0  0  0  0  0  0  0  0  0  0  0  0
    2.4259    1.7501   -1.9015 C   0  0  0  0  0  0  0  0  0  0  0  0
    3.6402    1.3330   -1.3580 C   0  0  0  0  0  0  0  0  0  0  0  0
    4.6653    1.0515   -2.1911 O   0  0  0  0  0  0  0  0  0  0  0  0
    6.3080    0.2307    1.9629 H   0  0  0  0  0  0  0  0  0  0  0  0
    5.0829    1.4434    2.4820 H   0  0  0  0  0  0  0  0  0  0  0  0
    4.6056   -0.2988    2.2257 H   0  0  0  0  0  0  0  0  0  0  0  0
    2.7734    1.4218    1.9469 H   0  0  0  0  0  0  0  0  0  0  0  0
    0.4710    2.0632    2.3165 H   0  0  0  0  0  0  0  0  0  0  0  0
   -1.0264    2.9801   -0.1949 H   0  0  0  0  0  0  0  0  0  0  0  0
   -2.9849    4.6329    0.7828 H   0  0  0  0  0  0  0  0  0  0  0  0
   -4.0178    3.7997    1.9999 H   0  0  0  0  0  0  0  0  0  0  0  0
   -4.5006    1.1660    1.4903 H   0  0  0  0  0  0  0  0  0  0  0  0
   -4.2575    0.7419   -1.5389 H   0  0  0  0  0  0  0  0  0  0  0  0
   -5.8868   -0.5063    1.7073 H   0  0  0  0  0  0  0  0  0  0  0  0
   -6.7871   -2.7580    1.9898 H   0  0  0  0  0  0  0  0  0  0  0  0
   -7.0907   -4.9681    1.0324 H   0  0  0  0  0  0  0  0  0  0  0  0
   -3.5180   -3.3752   -2.9473 H   0  0  0  0  0  0  0  0  0  0  0  0
   -3.7565   -5.1343   -2.9859 H   0  0  0  0  0  0  0  0  0  0  0  0
   -4.7837   -4.0889   -4.0343 H   0  0  0  0  0  0  0  0  0  0  0  0
   -4.3964   -1.5701   -2.1878 H   0  0  0  0  0  0  0  0  0  0  0  0
    0.4311    2.3657   -1.5544 H   0  0  0  0  0  0  0  0  0  0  0  0
    2.3181    1.8390   -2.9755 H   0  0  0  0  0  0  0  0  0  0  0  0
    5.5301    0.7596   -1.8712 H   0  0  0  0  0  0  0  0  0  0  0  0
  1 28  1  0  0  0  0
  1 29  1  0  0  0  0
  1 30  1  0  0  0  0
  2  1  1  0  0  0  0
  3  2  1  0  0  0  0
  4  3  2  0  0  0  0
  4 31  1  0  0  0  0
  5  4  1  0  0  0  0
  6  5  1  0  0  0  0
  6 32  1  0  0  0  0
  7  6  2  0  0  0  0
  7 33  1  0  0  0  0
  8  7  1  0  0  0  0
  9  8  2  0  0  0  0
 10  8  1  0  0  0  0
 10 34  1  0  0  0  0
 10 35  1  0  0  0  0
 11 10  1  0  0  0  0
 12 11  2  0  0  0  0
 13 11  1  0  0  0  0
 13 36  1  0  0  0  0
 14 13  2  0  0  0  0
 14 37  1  0  0  0  0
 15 14  1  0  0  0  0
 16 15  2  0  0  0  0
 16 38  1  0  0  0  0
 17 16  1  0  0  0  0
 17 39  1  0  0  0  0
 18 17  2  0  0  0  0
 19 18  1  0  0  0  0
 19 40  1  0  0  0  0
 20 18  1  0  0  0  0
 21 20  1  0  0  0  0
 22 21  1  0  0  0  0
 22 41  1  0  0  0  0
 22 42  1  0  0  0  0
 22 43  1  0  0  0  0
 23 20  2  0  0  0  0
 23 15  1  0  0  0  0
 23 44  1  0  0  0  0
 24  5  2  0  0  0  0
 24 45  1  0  0  0  0
 25 24  1  0  0  0  0
 25 46  1  0  0  0  0
 26 25  2  0  0  0  0
 26  3  1  0  0  0  0
 27 26  1  0  0  0  0
 27 47  1  0  0  0  0
M  END
>  <MOL Chiral Flag>
0

>  <energy>
49.54143597488266

$$$$
