>574.sdf
 OpenBabel10062215323D

 50 52  0  0  0  0  0  0  0  0999 V2000
    3.3328   -4.0722    1.9749 C   0  0  0  0  0  0  0  0  0  0  0  0
    2.6424   -2.8909    2.1799 O   0  0  0  0  0  0  0  0  0  0  0  0
    1.5889   -2.4729    1.4278 C   0  0  0  0  0  0  0  0  0  0  0  0
    1.1635   -3.2178    0.3218 C   0  0  0  0  0  0  0  0  0  0  0  0
    0.0912   -2.8042   -0.4404 C   0  0  0  0  0  0  0  0  0  0  0  0
   -0.6163   -1.6299   -0.1467 C   0  0  0  0  0  0  0  0  0  0  0  0
   -1.7532   -1.3402   -1.0832 C   0  0  0  0  0  0  0  0  0  0  0  0
   -2.6337   -0.3085   -1.1454 C   0  0  0  0  0  0  0  0  0  0  0  0
   -3.6550   -0.3300   -2.2712 C   0  0  0  0  0  0  0  0  0  0  0  0
   -3.6443   -1.2896   -3.0301 O   0  0  0  0  0  0  0  0  0  0  0  0
   -4.6636    0.7420   -2.5624 C   0  0  0  0  0  0  0  0  0  0  0  0
   -5.4518    0.6184   -3.7347 C   0  0  0  0  0  0  0  0  0  0  0  0
   -6.3982    1.5853   -4.0705 C   0  0  0  0  0  0  0  0  0  0  0  0
   -6.5861    2.6900   -3.2460 C   0  0  0  0  0  0  0  0  0  0  0  0
   -5.8241    2.8297   -2.0808 C   0  0  0  0  0  0  0  0  0  0  0  0
   -4.8626    1.8632   -1.7368 C   0  0  0  0  0  0  0  0  0  0  0  0
   -0.2018   -0.8531    0.9678 C   0  0  0  0  0  0  0  0  0  0  0  0
    0.9104   -1.2798    1.7610 C   0  0  0  0  0  0  0  0  0  0  0  0
    1.4572   -0.3083    3.2029 S   0  0  0  0  0  0  0  0  0  0  0  0
    0.2517    0.0453    4.0864 O   0  0  0  0  0  0  0  0  0  0  0  0
    1.9453    1.0966    2.8155 O   0  0  0  0  0  0  0  0  0  0  0  0
    2.6556   -0.9400    4.3816 N   0  0  0  0  0  0  0  0  0  0  0  0
    4.0392   -0.6307    3.9865 C   0  0  0  0  0  0  0  0  0  0  0  0
    5.0611   -1.1899    4.9669 C   0  0  0  0  0  0  0  0  0  0  0  0
    5.1734   -2.5771    5.1767 C   0  0  0  0  0  0  0  0  0  0  0  0
    6.1441   -3.0905    6.0452 C   0  0  0  0  0  0  0  0  0  0  0  0
    7.0089   -2.2271    6.7193 C   0  0  0  0  0  0  0  0  0  0  0  0
    6.9043   -0.8477    6.5281 C   0  0  0  0  0  0  0  0  0  0  0  0
    5.9383   -0.3281    5.6555 C   0  0  0  0  0  0  0  0  0  0  0  0
    3.7966   -4.0806    0.9660 H   0  0  0  0  0  0  0  0  0  0  0  0
    2.6470   -4.9391    2.0925 H   0  0  0  0  0  0  0  0  0  0  0  0
    4.1442   -4.1716    2.7154 H   0  0  0  0  0  0  0  0  0  0  0  0
    1.6598   -4.1336    0.0359 H   0  0  0  0  0  0  0  0  0  0  0  0
   -0.1930   -3.4206   -1.2846 H   0  0  0  0  0  0  0  0  0  0  0  0
   -1.8686   -2.1010   -1.8467 H   0  0  0  0  0  0  0  0  0  0  0  0
   -2.5897    0.5052   -0.4306 H   0  0  0  0  0  0  0  0  0  0  0  0
   -5.3296   -0.2273   -4.4004 H   0  0  0  0  0  0  0  0  0  0  0  0
   -6.9851    1.4742   -4.9753 H   0  0  0  0  0  0  0  0  0  0  0  0
   -7.3234    3.4376   -3.5120 H   0  0  0  0  0  0  0  0  0  0  0  0
   -5.9805    3.6908   -1.4456 H   0  0  0  0  0  0  0  0  0  0  0  0
   -4.2894    1.9962   -0.8318 H   0  0  0  0  0  0  0  0  0  0  0  0
   -0.7261    0.0598    1.2219 H   0  0  0  0  0  0  0  0  0  0  0  0
    2.5182   -1.9711    4.4741 H   0  0  0  0  0  0  0  0  0  0  0  0
    4.2544   -1.0475    2.9800 H   0  0  0  0  0  0  0  0  0  0  0  0
    4.1555    0.4723    3.9282 H   0  0  0  0  0  0  0  0  0  0  0  0
    4.5190   -3.2616    4.6666 H   0  0  0  0  0  0  0  0  0  0  0  0
    6.2286   -4.1603    6.1924 H   0  0  0  0  0  0  0  0  0  0  0  0
    7.7611   -2.6275    7.3887 H   0  0  0  0  0  0  0  0  0  0  0  0
    7.5774   -0.1809    7.0523 H   0  0  0  0  0  0  0  0  0  0  0  0
    5.8805    0.7430    5.5136 H   0  0  0  0  0  0  0  0  0  0  0  0
  1 30  1  0  0  0  0
  1 31  1  0  0  0  0
  1 32  1  0  0  0  0
  2  1  1  0  0  0  0
  3  2  1  0  0  0  0
  4  3  2  0  0  0  0
  4 33  1  0  0  0  0
  5  4  1  0  0  0  0
  5 34  1  0  0  0  0
  6  5  2  0  0  0  0
  7  6  1  0  0  0  0
  7 35  1  0  0  0  0
  8  7  2  0  0  0  0
  8 36  1  0  0  0  0
  9  8  1  0  0  0  0
 10  9  2  0  0  0  0
 11  9  1  0  0  0  0
 12 11  2  0  0  0  0
 12 37  1  0  0  0  0
 13 12  1  0  0  0  0
 13 38  1  0  0  0  0
 14 13  2  0  0  0  0
 14 39  1  0  0  0  0
 15 14  1  0  0  0  0
 15 40  1  0  0  0  0
 16 15  2  0  0  0  0
 16 11  1  0  0  0  0
 16 41  1  0  0  0  0
 17  6  1  0  0  0  0
 17 42  1  0  0  0  0
 18 17  2  0  0  0  0
 18  3  1  0  0  0  0
 19 18  1  0  0  0  0
 20 19  2  0  0  0  0
 21 19  2  0  0  0  0
 22 19  1  0  0  0  0
 22 43  1  0  0  0  0
 23 22  1  0  0  0  0
 23 44  1  0  0  0  0
 23 45  1  0  0  0  0
 24 23  1  0  0  0  0
 25 24  2  0  0  0  0
 25 46  1  0  0  0  0
 26 25  1  0  0  0  0
 26 47  1  0  0  0  0
 27 26  2  0  0  0  0
 27 48  1  0  0  0  0
 28 27  1  0  0  0  0
 28 49  1  0  0  0  0
 29 28  2  0  0  0  0
 29 24  1  0  0  0  0
 29 50  1  0  0  0  0
M  END
>  <MOL Chiral Flag>
0

>  <energy>
16.743040781970024

$$$$
