>576.sdf
 OpenBabel10062215333D

 45 48  0  0  0  0  0  0  0  0999 V2000
    0.6373   -3.3700   -3.8933 C   0  0  0  0  0  0  0  0  0  0  0  0
    0.3021   -2.2425   -4.7718 N   0  0  0  0  0  0  0  0  0  0  0  0
   -0.1674   -2.2370   -6.0474 C   0  0  0  0  0  0  0  0  0  0  0  0
   -0.3354   -0.9287   -6.4488 C   0  0  0  0  0  0  0  0  0  0  0  0
    0.0255   -0.1138   -5.4419 N   0  0  0  0  0  0  0  0  0  0  0  0
    0.4126   -0.9302   -4.4368 C   0  0  0  0  0  0  0  0  0  0  0  0
    0.9312   -0.3975   -3.1600 C   0  0  0  0  0  0  0  0  0  0  0  0
    1.4784   -1.1261   -2.1455 N   0  0  0  0  0  0  0  0  0  0  0  0
    1.9765   -0.3723   -1.1403 N   0  0  0  0  0  0  0  0  0  0  0  0
    1.8186    0.9667   -1.3354 C   0  0  0  0  0  0  0  0  0  0  0  0
    1.0589    1.2017   -2.7834 S   0  0  0  0  0  0  0  0  0  0  0  0
    2.3480    1.9853   -0.4822 N   0  0  0  0  0  0  0  0  0  0  0  0
    3.2335    1.6660    0.6276 C   0  0  0  0  0  0  0  0  0  0  0  0
    2.7156    2.3170    1.9210 C   0  0  0  0  0  0  0  0  0  0  0  0
    2.4247    3.7323    1.6630 N   0  0  0  0  0  0  0  0  0  0  0  0
    1.4951    3.9928    0.5593 C   0  0  0  0  0  0  0  0  0  0  0  0
    2.0684    3.3916   -0.7221 C   0  0  0  0  0  0  0  0  0  0  0  0
    3.0285    4.7939    2.3193 C   0  0  0  0  0  0  0  0  0  0  0  0
    2.8633    5.9241    1.8777 O   0  0  0  0  0  0  0  0  0  0  0  0
    3.9061    4.6816    3.5359 C   0  0  0  0  0  0  0  0  0  0  0  0
    4.9189    5.6486    3.7194 C   0  0  0  0  0  0  0  0  0  0  0  0
    5.7451    5.6176    4.8449 C   0  0  0  0  0  0  0  0  0  0  0  0
    5.5662    4.6346    5.8162 C   0  0  0  0  0  0  0  0  0  0  0  0
    4.5524    3.6868    5.6695 C   0  0  0  0  0  0  0  0  0  0  0  0
    3.7206    3.7096    4.5437 C   0  0  0  0  0  0  0  0  0  0  0  0
   -0.4428   -3.3693   -6.8751 N   0  0  0  0  0  0  0  0  0  0  0  0
   -0.2663   -4.4798   -6.4816 O   0  0  0  0  0  0  0  0  0  0  0  0
   -0.8379   -3.2035   -7.9896 O   0  0  0  0  0  0  0  0  0  0  0  0
    0.4651   -4.3568   -4.3471 H   0  0  0  0  0  0  0  0  0  0  0  0
    0.0112   -3.3200   -2.9774 H   0  0  0  0  0  0  0  0  0  0  0  0
    1.7089   -3.3193   -3.6108 H   0  0  0  0  0  0  0  0  0  0  0  0
   -0.6893   -0.5846   -7.4118 H   0  0  0  0  0  0  0  0  0  0  0  0
    3.3682    0.5718    0.7667 H   0  0  0  0  0  0  0  0  0  0  0  0
    4.2311    2.1042    0.4042 H   0  0  0  0  0  0  0  0  0  0  0  0
    3.5062    2.1355    2.6634 H   0  0  0  0  0  0  0  0  0  0  0  0
    1.7799    1.8090    2.2406 H   0  0  0  0  0  0  0  0  0  0  0  0
    0.5167    3.5165    0.7906 H   0  0  0  0  0  0  0  0  0  0  0  0
    1.2982    5.0721    0.3881 H   0  0  0  0  0  0  0  0  0  0  0  0
    1.3570    3.5541   -1.5571 H   0  0  0  0  0  0  0  0  0  0  0  0
    3.0180    3.9139   -0.9699 H   0  0  0  0  0  0  0  0  0  0  0  0
    5.0768    6.4253    2.9807 H   0  0  0  0  0  0  0  0  0  0  0  0
    6.5229    6.3613    4.9643 H   0  0  0  0  0  0  0  0  0  0  0  0
    6.2049    4.6161    6.6900 H   0  0  0  0  0  0  0  0  0  0  0  0
    4.4022    2.9388    6.4369 H   0  0  0  0  0  0  0  0  0  0  0  0
    2.9186    2.9888    4.4908 H   0  0  0  0  0  0  0  0  0  0  0  0
  1 29  1  0  0  0  0
  1 30  1  0  0  0  0
  1 31  1  0  0  0  0
  2  1  1  0  0  0  0
  3  2  1  0  0  0  0
  4  3  2  0  0  0  0
  4 32  1  0  0  0  0
  5  4  1  0  0  0  0
  6  5  2  0  0  0  0
  6  2  1  0  0  0  0
  7  6  1  0  0  0  0
  8  7  2  0  0  0  0
  9  8  1  0  0  0  0
 10  9  2  0  0  0  0
 11 10  1  0  0  0  0
 11  7  1  0  0  0  0
 12 10  1  0  0  0  0
 13 12  1  0  0  0  0
 13 33  1  0  0  0  0
 13 34  1  0  0  0  0
 14 13  1  0  0  0  0
 14 35  1  0  0  0  0
 14 36  1  0  0  0  0
 15 14  1  0  0  0  0
 16 15  1  0  0  0  0
 16 37  1  0  0  0  0
 16 38  1  0  0  0  0
 17 16  1  0  0  0  0
 17 12  1  0  0  0  0
 17 39  1  0  0  0  0
 17 40  1  0  0  0  0
 18 15  1  0  0  0  0
 19 18  2  0  0  0  0
 20 18  1  0  0  0  0
 21 20  2  0  0  0  0
 21 41  1  0  0  0  0
 22 21  1  0  0  0  0
 22 42  1  0  0  0  0
 23 22  2  0  0  0  0
 23 43  1  0  0  0  0
 24 23  1  0  0  0  0
 24 44  1  0  0  0  0
 25 24  2  0  0  0  0
 25 20  1  0  0  0  0
 25 45  1  0  0  0  0
 26  3  1  0  0  0  0
 27 26  2  0  0  0  0
 28 26  2  0  0  0  0
M  END
>  <MOL Chiral Flag>
0

>  <energy>
106.93398379601824

$$$$
