>578.sdf
 OpenBabel10062215333D

 32 34  0  0  0  0  0  0  0  0999 V2000
   -4.9918    2.2450   -0.3471 C   0  0  0  0  0  0  0  0  0  0  0  0
   -3.9733    1.7500   -1.1312 O   0  0  0  0  0  0  0  0  0  0  0  0
   -3.1506    0.7676   -0.7007 C   0  0  0  0  0  0  0  0  0  0  0  0
   -3.6444   -0.4302   -0.1650 C   0  0  0  0  0  0  0  0  0  0  0  0
   -2.7759   -1.4219    0.3146 C   0  0  0  0  0  0  0  0  0  0  0  0
   -3.3457   -2.5433    0.8144 O   0  0  0  0  0  0  0  0  0  0  0  0
   -1.3596   -1.1953    0.2653 C   0  0  0  0  0  0  0  0  0  0  0  0
   -0.3731   -2.1114    0.7215 C   0  0  0  0  0  0  0  0  0  0  0  0
   -0.6651   -3.1858    1.2062 O   0  0  0  0  0  0  0  0  0  0  0  0
    0.9776   -1.7723    0.6184 C   0  0  0  0  0  0  0  0  0  0  0  0
    1.3378   -0.5233    0.1063 C   0  0  0  0  0  0  0  0  0  0  0  0
    0.4015    0.3186   -0.3049 O   0  0  0  0  0  0  0  0  0  0  0  0
   -0.8931    0.0332   -0.2727 C   0  0  0  0  0  0  0  0  0  0  0  0
   -1.7830    0.9807   -0.7660 C   0  0  0  0  0  0  0  0  0  0  0  0
    2.7469   -0.1009    0.0236 C   0  0  0  0  0  0  0  0  0  0  0  0
    3.0847    1.2334    0.3041 C   0  0  0  0  0  0  0  0  0  0  0  0
    4.4157    1.6512    0.2364 C   0  0  0  0  0  0  0  0  0  0  0  0
    5.4124    0.7503   -0.1468 C   0  0  0  0  0  0  0  0  0  0  0  0
    5.0815   -0.5747   -0.4453 C   0  0  0  0  0  0  0  0  0  0  0  0
    3.7558   -1.0067   -0.3448 C   0  0  0  0  0  0  0  0  0  0  0  0
   -5.7199    1.4565   -0.0711 H   0  0  0  0  0  0  0  0  0  0  0  0
   -5.5159    3.0527   -0.8954 H   0  0  0  0  0  0  0  0  0  0  0  0
   -4.5491    2.6807    0.5761 H   0  0  0  0  0  0  0  0  0  0  0  0
   -4.7123   -0.6031   -0.1202 H   0  0  0  0  0  0  0  0  0  0  0  0
   -2.8873   -3.2944    1.2007 H   0  0  0  0  0  0  0  0  0  0  0  0
    1.7352   -2.4597    0.9769 H   0  0  0  0  0  0  0  0  0  0  0  0
   -1.4067    1.9092   -1.1777 H   0  0  0  0  0  0  0  0  0  0  0  0
    2.3204    1.9407    0.6051 H   0  0  0  0  0  0  0  0  0  0  0  0
    4.6730    2.6742    0.4787 H   0  0  0  0  0  0  0  0  0  0  0  0
    6.4405    1.0796   -0.2140 H   0  0  0  0  0  0  0  0  0  0  0  0
    5.8519   -1.2676   -0.7563 H   0  0  0  0  0  0  0  0  0  0  0  0
    3.5119   -2.0329   -0.5890 H   0  0  0  0  0  0  0  0  0  0  0  0
  1 21  1  0  0  0  0
  1 22  1  0  0  0  0
  1 23  1  0  0  0  0
  2  1  1  0  0  0  0
  3  2  1  0  0  0  0
  4  3  2  0  0  0  0
  4 24  1  0  0  0  0
  5  4  1  0  0  0  0
  6  5  1  0  0  0  0
  6 25  1  0  0  0  0
  7  5  2  0  0  0  0
  8  7  1  0  0  0  0
  9  8  2  0  0  0  0
 10  8  1  0  0  0  0
 10 26  1  0  0  0  0
 11 10  2  0  0  0  0
 12 11  1  0  0  0  0
 13 12  1  0  0  0  0
 13  7  1  0  0  0  0
 14 13  2  0  0  0  0
 14  3  1  0  0  0  0
 14 27  1  0  0  0  0
 15 11  1  0  0  0  0
 16 15  2  0  0  0  0
 16 28  1  0  0  0  0
 17 16  1  0  0  0  0
 17 29  1  0  0  0  0
 18 17  2  0  0  0  0
 18 30  1  0  0  0  0
 19 18  1  0  0  0  0
 19 31  1  0  0  0  0
 20 19  2  0  0  0  0
 20 15  1  0  0  0  0
 20 32  1  0  0  0  0
M  END
>  <MOL Chiral Flag>
0

>  <energy>
47.253777641227671

$$$$
