>585.sdf
 OpenBabel10062215403D

 48 51  0  0  0  0  0  0  0  0999 V2000
    7.3294    2.5063    0.8182 C   0  0  0  0  0  0  0  0  0  0  0  0
    6.9903    1.7073   -0.2577 O   0  0  0  0  0  0  0  0  0  0  0  0
    5.7207    1.3414   -0.5779 C   0  0  0  0  0  0  0  0  0  0  0  0
    5.5273    0.2707   -1.4589 C   0  0  0  0  0  0  0  0  0  0  0  0
    4.2364   -0.1800   -1.7634 C   0  0  0  0  0  0  0  0  0  0  0  0
    3.1109    0.4486   -1.2076 C   0  0  0  0  0  0  0  0  0  0  0  0
    1.7482   -0.1076   -1.4979 C   0  0  0  0  0  0  0  0  0  0  0  0
    0.6262    0.5157   -1.1033 C   0  0  0  0  0  0  0  0  0  0  0  0
   -0.7482   -0.0197   -1.2639 C   0  0  0  0  0  0  0  0  0  0  0  0
   -1.8833    0.5980   -0.7954 N   0  3  0  0  0  0  0  0  0  0  0  0
   -3.0287   -0.0427   -1.1210 N   0  0  0  0  0  0  0  0  0  0  0  0
   -2.8284   -1.1901   -1.8227 C   0  0  0  0  0  0  0  0  0  0  0  0
   -3.8307   -2.1338   -2.2036 N   0  0  0  0  0  0  0  0  0  0  0  0
   -5.2426   -2.0389   -1.9530 C   0  0  0  0  0  0  0  0  0  0  0  0
   -6.0411   -3.1729   -2.2050 C   0  0  0  0  0  0  0  0  0  0  0  0
   -7.4193   -3.1470   -1.9738 C   0  0  0  0  0  0  0  0  0  0  0  0
   -8.0261   -1.9878   -1.4941 C   0  0  0  0  0  0  0  0  0  0  0  0
   -7.2565   -0.8512   -1.2459 C   0  0  0  0  0  0  0  0  0  0  0  0
   -5.8748   -0.8681   -1.4704 C   0  0  0  0  0  0  0  0  0  0  0  0
   -1.2034   -1.3971   -2.0583 S   0  0  0  0  0  0  0  0  0  0  0  0
   -1.9010    1.8050   -0.0026 C   0  0  0  0  0  0  0  0  0  0  0  0
   -0.9772    1.9928    1.0485 C   0  0  0  0  0  0  0  0  0  0  0  0
   -0.9692    3.1764    1.7849 C   0  0  0  0  0  0  0  0  0  0  0  0
   -1.8843    4.1862    1.4908 C   0  0  0  0  0  0  0  0  0  0  0  0
   -2.8251    4.0023    0.4723 C   0  0  0  0  0  0  0  0  0  0  0  0
   -2.8441    2.8108   -0.2644 C   0  0  0  0  0  0  0  0  0  0  0  0
    3.3139    1.5544   -0.3449 C   0  0  0  0  0  0  0  0  0  0  0  0
    4.5993    1.9879   -0.0322 C   0  0  0  0  0  0  0  0  0  0  0  0
    7.0070    2.0150    1.7630 H   0  0  0  0  0  0  0  0  0  0  0  0
    6.8676    3.5124    0.7375 H   0  0  0  0  0  0  0  0  0  0  0  0
    8.4306    2.6290    0.8486 H   0  0  0  0  0  0  0  0  0  0  0  0
    6.3839   -0.2336   -1.8869 H   0  0  0  0  0  0  0  0  0  0  0  0
    4.1157   -1.0291   -2.4244 H   0  0  0  0  0  0  0  0  0  0  0  0
    1.6745   -1.0631   -2.0094 H   0  0  0  0  0  0  0  0  0  0  0  0
    0.7114    1.4731   -0.6429 H   0  0  0  0  0  0  0  0  0  0  0  0
   -3.4888   -3.0029   -2.6415 H   0  0  0  0  0  0  0  0  0  0  0  0
   -5.5894   -4.0850   -2.5750 H   0  0  0  0  0  0  0  0  0  0  0  0
   -8.0172   -4.0289   -2.1667 H   0  0  0  0  0  0  0  0  0  0  0  0
   -9.0941   -1.9689   -1.3169 H   0  0  0  0  0  0  0  0  0  0  0  0
   -7.7324    0.0491   -0.8787 H   0  0  0  0  0  0  0  0  0  0  0  0
   -5.3364    0.0382   -1.2723 H   0  0  0  0  0  0  0  0  0  0  0  0
   -0.2670    1.2172    1.3051 H   0  0  0  0  0  0  0  0  0  0  0  0
   -0.2482    3.3093    2.5819 H   0  0  0  0  0  0  0  0  0  0  0  0
   -1.8669    5.1084    2.0564 H   0  0  0  0  0  0  0  0  0  0  0  0
   -3.5339    4.7880    0.2487 H   0  0  0  0  0  0  0  0  0  0  0  0
   -3.5664    2.6865   -1.0609 H   0  0  0  0  0  0  0  0  0  0  0  0
    2.5018    2.0788    0.1291 H   0  0  0  0  0  0  0  0  0  0  0  0
    4.7082    2.8212    0.6483 H   0  0  0  0  0  0  0  0  0  0  0  0
  1 29  1  0  0  0  0
  1 30  1  0  0  0  0
  1 31  1  0  0  0  0
  2  1  1  0  0  0  0
  3  2  1  0  0  0  0
  4  3  2  0  0  0  0
  4 32  1  0  0  0  0
  5  4  1  0  0  0  0
  5 33  1  0  0  0  0
  6  5  2  0  0  0  0
  7  6  1  0  0  0  0
  7 34  1  0  0  0  0
  8  7  2  0  0  0  0
  8 35  1  0  0  0  0
  9  8  1  0  0  0  0
 10  9  2  0  0  0  0
 11 10  1  0  0  0  0
 12 11  2  0  0  0  0
 13 12  1  0  0  0  0
 13 36  1  0  0  0  0
 14 13  1  0  0  0  0
 15 14  2  0  0  0  0
 15 37  1  0  0  0  0
 16 15  1  0  0  0  0
 16 38  1  0  0  0  0
 17 16  2  0  0  0  0
 17 39  1  0  0  0  0
 18 17  1  0  0  0  0
 18 40  1  0  0  0  0
 19 18  2  0  0  0  0
 19 14  1  0  0  0  0
 19 41  1  0  0  0  0
 20 12  1  0  0  0  0
 20  9  1  0  0  0  0
 21 10  1  0  0  0  0
 22 21  2  0  0  0  0
 22 42  1  0  0  0  0
 23 22  1  0  0  0  0
 23 43  1  0  0  0  0
 24 23  2  0  0  0  0
 24 44  1  0  0  0  0
 25 24  1  0  0  0  0
 25 45  1  0  0  0  0
 26 25  2  0  0  0  0
 26 21  1  0  0  0  0
 26 46  1  0  0  0  0
 27  6  1  0  0  0  0
 27 47  1  0  0  0  0
 28 27  2  0  0  0  0
 28  3  1  0  0  0  0
 28 48  1  0  0  0  0
M  CHG  1  10   1
M  END
>  <MOL Chiral Flag>
0

>  <energy>
118.50665739956135

$$$$
