>59.sdf
 OpenBabel10052218143D

 52 56  0  0  0  0  0  0  0  0999 V2000
   -7.0648   -2.1946   -1.7005 C   0  0  0  0  0  0  0  0  0  0  0  0
   -6.6157   -1.3237   -0.7241 O   0  0  0  0  0  0  0  0  0  0  0  0
   -5.3340   -0.9466   -0.4594 C   0  0  0  0  0  0  0  0  0  0  0  0
   -4.2063   -1.5952   -1.0047 C   0  0  0  0  0  0  0  0  0  0  0  0
   -2.9163   -1.1564   -0.6852 C   0  0  0  0  0  0  0  0  0  0  0  0
   -2.7174   -0.0542    0.1684 C   0  0  0  0  0  0  0  0  0  0  0  0
   -3.8501    0.5667    0.7302 C   0  0  0  0  0  0  0  0  0  0  0  0
   -5.1364    0.1239    0.4162 C   0  0  0  0  0  0  0  0  0  0  0  0
   -1.3213    0.3773    0.4940 C   0  0  0  0  0  0  0  0  0  0  0  0
   -0.9519    1.6857    0.8870 C   0  0  0  0  0  0  0  0  0  0  0  0
   -1.6952    2.8222    0.9572 N   0  0  0  0  0  0  0  0  0  0  0  0
   -0.8474    3.7942    1.3563 C   0  0  0  0  0  0  0  0  0  0  0  0
    0.4193    3.2964    1.5355 C   0  0  0  0  0  0  0  0  0  0  0  0
    1.4796    4.1099    1.9293 C   0  0  0  0  0  0  0  0  0  0  0  0
    1.2165    5.4759    2.1439 C   0  0  0  0  0  0  0  0  0  0  0  0
   -0.0886    5.9903    1.9584 C   0  0  0  0  0  0  0  0  0  0  0  0
   -1.1383    5.1414    1.5581 C   0  0  0  0  0  0  0  0  0  0  0  0
    0.3562    1.9596    1.2273 C   0  0  0  0  0  0  0  0  0  0  0  0
    1.3458    0.9933    1.1975 C   0  0  0  0  0  0  0  0  0  0  0  0
    0.9862   -0.2927    0.7540 C   0  0  0  0  0  0  0  0  0  0  0  0
   -0.3172   -0.5555    0.4116 N   0  0  0  0  0  0  0  0  0  0  0  0
    2.0203   -1.3501    0.6357 C   0  0  0  0  0  0  0  0  0  0  0  0
    3.1295   -1.1585    1.1158 O   0  0  0  0  0  0  0  0  0  0  0  0
    1.7596   -2.5050   -0.0435 N   0  0  0  0  0  0  0  0  0  0  0  0
    2.7643   -3.5404   -0.2284 C   0  0  0  0  0  0  0  0  0  0  0  0
    3.9947   -2.9857   -0.9098 C   0  0  0  0  0  0  0  0  0  0  0  0
    5.2496   -3.0700   -0.2811 C   0  0  0  0  0  0  0  0  0  0  0  0
    6.3831   -2.5308   -0.8962 C   0  0  0  0  0  0  0  0  0  0  0  0
    6.2734   -1.9027   -2.1393 C   0  0  0  0  0  0  0  0  0  0  0  0
    5.0302   -1.8175   -2.7728 C   0  0  0  0  0  0  0  0  0  0  0  0
    3.8930   -2.3593   -2.1636 C   0  0  0  0  0  0  0  0  0  0  0  0
   -7.5417   -3.0716   -1.2168 H   0  0  0  0  0  0  0  0  0  0  0  0
   -6.2785   -2.5418   -2.3940 H   0  0  0  0  0  0  0  0  0  0  0  0
   -7.8293   -1.6736   -2.3130 H   0  0  0  0  0  0  0  0  0  0  0  0
   -4.3014   -2.4424   -1.6647 H   0  0  0  0  0  0  0  0  0  0  0  0
   -2.0693   -1.6742   -1.1180 H   0  0  0  0  0  0  0  0  0  0  0  0
   -3.7599    1.3651    1.4435 H   0  0  0  0  0  0  0  0  0  0  0  0
   -5.9912    0.6159    0.8641 H   0  0  0  0  0  0  0  0  0  0  0  0
   -2.6967    2.9765    0.7237 H   0  0  0  0  0  0  0  0  0  0  0  0
    2.4763    3.7089    2.0603 H   0  0  0  0  0  0  0  0  0  0  0  0
    2.0181    6.1365    2.4472 H   0  0  0  0  0  0  0  0  0  0  0  0
   -0.2801    7.0427    2.1210 H   0  0  0  0  0  0  0  0  0  0  0  0
   -2.1388    5.5255    1.4077 H   0  0  0  0  0  0  0  0  0  0  0  0
    2.3663    1.2399    1.4623 H   0  0  0  0  0  0  0  0  0  0  0  0
    0.8334   -2.6451   -0.4740 H   0  0  0  0  0  0  0  0  0  0  0  0
    2.3399   -4.3549   -0.8548 H   0  0  0  0  0  0  0  0  0  0  0  0
    3.0257   -3.9750    0.7609 H   0  0  0  0  0  0  0  0  0  0  0  0
    5.3479   -3.5470    0.6861 H   0  0  0  0  0  0  0  0  0  0  0  0
    7.3460   -2.5956   -0.4059 H   0  0  0  0  0  0  0  0  0  0  0  0
    7.1517   -1.4803   -2.6104 H   0  0  0  0  0  0  0  0  0  0  0  0
    4.9473   -1.3270   -3.7341 H   0  0  0  0  0  0  0  0  0  0  0  0
    2.9333   -2.2807   -2.6590 H   0  0  0  0  0  0  0  0  0  0  0  0
  1 32  1  0  0  0  0
  1 33  1  0  0  0  0
  1 34  1  0  0  0  0
  2  1  1  0  0  0  0
  3  2  1  0  0  0  0
  4  3  2  0  0  0  0
  4 35  1  0  0  0  0
  5  4  1  0  0  0  0
  5 36  1  0  0  0  0
  6  5  2  0  0  0  0
  7  6  1  0  0  0  0
  7 37  1  0  0  0  0
  8  7  2  0  0  0  0
  8  3  1  0  0  0  0
  8 38  1  0  0  0  0
  9  6  1  0  0  0  0
 10  9  2  0  0  0  0
 11 10  1  0  0  0  0
 11 39  1  0  0  0  0
 12 11  1  0  0  0  0
 13 12  2  0  0  0  0
 14 13  1  0  0  0  0
 14 40  1  0  0  0  0
 15 14  2  0  0  0  0
 15 41  1  0  0  0  0
 16 15  1  0  0  0  0
 16 42  1  0  0  0  0
 17 16  2  0  0  0  0
 17 12  1  0  0  0  0
 17 43  1  0  0  0  0
 18 13  1  0  0  0  0
 18 10  1  0  0  0  0
 19 18  2  0  0  0  0
 19 44  1  0  0  0  0
 20 19  1  0  0  0  0
 21 20  2  0  0  0  0
 21  9  1  0  0  0  0
 22 20  1  0  0  0  0
 23 22  2  0  0  0  0
 24 22  1  0  0  0  0
 24 45  1  0  0  0  0
 25 24  1  0  0  0  0
 25 46  1  0  0  0  0
 25 47  1  0  0  0  0
 26 25  1  0  0  0  0
 27 26  2  0  0  0  0
 27 48  1  0  0  0  0
 28 27  1  0  0  0  0
 28 49  1  0  0  0  0
 29 28  2  0  0  0  0
 29 50  1  0  0  0  0
 30 29  1  0  0  0  0
 30 51  1  0  0  0  0
 31 30  2  0  0  0  0
 31 26  1  0  0  0  0
 31 52  1  0  0  0  0
M  END
>  <MOL Chiral Flag>
0

>  <energy>
96.709034706047262

$$$$
