>590.sdf
 OpenBabel10062215433D

 47 48  0  0  0  0  0  0  0  0999 V2000
   -4.9620    1.4856   -0.6080 C   0  0  0  0  0  0  0  0  0  0  0  0
   -4.9911   -0.0297   -0.3659 C   0  0  0  0  0  0  0  0  0  0  0  0
   -3.8003   -0.8331   -0.9570 C   0  0  1  0  0  0  0  0  0  0  0  0
   -3.7143   -0.6580   -2.4831 C   0  0  0  0  0  0  0  0  0  0  0  0
   -2.4603   -0.5214   -0.3028 C   0  0  0  0  0  0  0  0  0  0  0  0
   -2.3770    0.3711    0.5292 O   0  0  0  0  0  0  0  0  0  0  0  0
   -1.3592   -1.2606   -0.6250 N   0  0  0  0  0  0  0  0  0  0  0  0
   -0.0398   -1.0009   -0.0629 C   0  0  1  0  0  0  0  0  0  0  0  0
    0.3912   -2.2239    0.7604 C   0  0  0  0  0  0  0  0  0  0  0  0
    1.8411   -2.0452    1.1477 C   0  0  0  0  0  0  0  0  0  0  0  0
    2.6473   -1.9992   -0.1229 C   0  0  0  0  0  0  0  0  0  0  0  0
    3.7119   -2.6023   -0.1603 O   0  0  0  0  0  0  0  0  0  0  0  0
    2.1999   -1.3011   -1.2243 N   0  0  0  0  0  0  0  0  0  0  0  0
    3.0962   -1.2546   -2.4011 C   0  0  0  0  0  0  0  0  0  0  0  0
    2.5245   -0.6952   -3.7227 C   0  0  0  0  0  0  0  0  0  0  0  0
    3.3756   -0.9266   -4.9586 C   0  0  0  0  0  0  0  0  0  0  0  0
    2.8388   -0.5646   -6.2067 C   0  0  0  0  0  0  0  0  0  0  0  0
    3.5562   -0.7954   -7.3834 C   0  0  0  0  0  0  0  0  0  0  0  0
    4.8207   -1.3835   -7.3286 C   0  0  0  0  0  0  0  0  0  0  0  0
    5.3731   -1.7378   -6.0964 C   0  0  0  0  0  0  0  0  0  0  0  0
    4.6600   -1.5140   -4.9144 C   0  0  0  0  0  0  0  0  0  0  0  0
    0.9429   -0.7141   -1.1908 C   0  0  0  0  0  0  0  0  0  0  0  0
    0.5813    0.0552   -2.0668 O   0  0  0  0  0  0  0  0  0  0  0  0
   -4.9952    1.7174   -1.6917 H   0  0  0  0  0  0  0  0  0  0  0  0
   -5.8575    1.9436   -0.1375 H   0  0  0  0  0  0  0  0  0  0  0  0
   -4.0670    1.9621   -0.1635 H   0  0  0  0  0  0  0  0  0  0  0  0
   -5.0384   -0.2173    0.7290 H   0  0  0  0  0  0  0  0  0  0  0  0
   -5.9332   -0.4199   -0.8101 H   0  0  0  0  0  0  0  0  0  0  0  0
   -4.0184   -1.9036   -0.7475 H   0  0  0  0  0  0  0  0  0  0  0  0
   -4.6854   -0.9197   -2.9548 H   0  0  0  0  0  0  0  0  0  0  0  0
   -3.4520    0.3868   -2.7514 H   0  0  0  0  0  0  0  0  0  0  0  0
   -2.9402   -1.3232   -2.9179 H   0  0  0  0  0  0  0  0  0  0  0  0
   -1.4565   -2.0389   -1.2954 H   0  0  0  0  0  0  0  0  0  0  0  0
   -0.0519   -0.1027    0.5929 H   0  0  0  0  0  0  0  0  0  0  0  0
    0.2948   -3.1580    0.1597 H   0  0  0  0  0  0  0  0  0  0  0  0
   -0.2561   -2.3186    1.6585 H   0  0  0  0  0  0  0  0  0  0  0  0
    1.9450   -1.0835    1.6960 H   0  0  0  0  0  0  0  0  0  0  0  0
    2.1970   -2.8656    1.8085 H   0  0  0  0  0  0  0  0  0  0  0  0
    4.0322   -0.7139   -2.1361 H   0  0  0  0  0  0  0  0  0  0  0  0
    3.3494   -2.3127   -2.6337 H   0  0  0  0  0  0  0  0  0  0  0  0
    2.3386    0.3968   -3.6322 H   0  0  0  0  0  0  0  0  0  0  0  0
    1.5698   -1.2316   -3.9161 H   0  0  0  0  0  0  0  0  0  0  0  0
    1.8539   -0.1171   -6.2658 H   0  0  0  0  0  0  0  0  0  0  0  0
    3.1273   -0.5237   -8.3392 H   0  0  0  0  0  0  0  0  0  0  0  0
    5.3723   -1.5663   -8.2416 H   0  0  0  0  0  0  0  0  0  0  0  0
    6.3542   -2.1933   -6.0565 H   0  0  0  0  0  0  0  0  0  0  0  0
    5.1163   -1.8056   -3.9797 H   0  0  0  0  0  0  0  0  0  0  0  0
  1 24  1  0  0  0  0
  1 25  1  0  0  0  0
  1 26  1  0  0  0  0
  2  1  1  0  0  0  0
  2 27  1  0  0  0  0
  2 28  1  0  0  0  0
  3  2  1  0  0  0  0
  3 29  1  1  0  0  0
  4  3  1  0  0  0  0
  4 30  1  0  0  0  0
  4 31  1  0  0  0  0
  4 32  1  0  0  0  0
  5  3  1  0  0  0  0
  6  5  2  0  0  0  0
  7  5  1  0  0  0  0
  7 33  1  0  0  0  0
  8  7  1  0  0  0  0
  8 34  1  1  0  0  0
  9  8  1  0  0  0  0
  9 35  1  0  0  0  0
  9 36  1  0  0  0  0
 10  9  1  0  0  0  0
 10 37  1  0  0  0  0
 10 38  1  0  0  0  0
 11 10  1  0  0  0  0
 12 11  2  0  0  0  0
 13 11  1  0  0  0  0
 14 13  1  0  0  0  0
 14 39  1  0  0  0  0
 14 40  1  0  0  0  0
 15 14  1  0  0  0  0
 15 41  1  0  0  0  0
 15 42  1  0  0  0  0
 16 15  1  0  0  0  0
 17 16  2  0  0  0  0
 17 43  1  0  0  0  0
 18 17  1  0  0  0  0
 18 44  1  0  0  0  0
 19 18  2  0  0  0  0
 19 45  1  0  0  0  0
 20 19  1  0  0  0  0
 20 46  1  0  0  0  0
 21 20  2  0  0  0  0
 21 16  1  0  0  0  0
 21 47  1  0  0  0  0
 22 13  1  0  0  0  0
 22  8  1  0  0  0  0
 23 22  2  0  0  0  0
M  END
>  <MOL Chiral Flag>
0

>  <energy>
-5.1581920727743409

$$$$
