>592.sdf
 OpenBabel10062215443D

 58 62  0  0  0  0  0  0  0  0999 V2000
    5.2244   -4.4328    0.3170 C   0  0  0  0  0  0  0  0  0  0  0  0
    3.8159   -4.8140   -0.2005 C   0  0  0  0  0  0  0  0  0  0  0  0
    3.3925   -6.1151    0.5141 C   0  0  0  0  0  0  0  0  0  0  0  0
    3.9277   -5.0692   -1.7187 C   0  0  0  0  0  0  0  0  0  0  0  0
    2.7620   -3.7138    0.0442 C   0  0  0  0  0  0  0  0  0  0  0  0
    3.1006   -2.4562    0.6350 C   0  0  0  0  0  0  0  0  0  0  0  0
    2.1274   -1.4610    0.8105 C   0  0  0  0  0  0  0  0  0  0  0  0
    0.8289   -1.7320    0.4027 C   0  0  0  0  0  0  0  0  0  0  0  0
   -0.2226   -0.9116    0.4724 N   0  0  0  0  0  0  0  0  0  0  0  0
   -1.2993   -1.5845   -0.0376 C   0  0  0  0  0  0  0  0  0  0  0  0
   -0.8899   -2.8617   -0.4028 C   0  0  0  0  0  0  0  0  0  0  0  0
   -1.6295   -4.0164   -0.9547 C   0  0  0  0  0  0  0  0  0  0  0  0
   -3.1195   -4.0568   -1.0781 C   0  0  0  0  0  0  0  0  0  0  0  0
   -3.5773   -5.1366   -1.4291 O   0  0  0  0  0  0  0  0  0  0  0  0
   -4.0098   -3.0471   -0.8534 N   0  0  0  0  0  0  0  0  0  0  0  0
   -3.8612   -1.6546   -0.5201 C   0  0  0  0  0  0  0  0  0  0  0  0
   -5.0614   -0.9026   -0.5675 C   0  0  0  0  0  0  0  0  0  0  0  0
   -5.0970    0.4646   -0.3359 C   0  0  0  0  0  0  0  0  0  0  0  0
   -3.9322    1.1587   -0.0476 C   0  0  0  0  0  0  0  0  0  0  0  0
   -4.0080    2.6476    0.1127 C   0  0  0  0  0  0  0  0  0  0  0  0
   -2.9302    3.4541    0.2448 C   0  0  0  0  0  0  0  0  0  0  0  0
   -3.0562    4.9379    0.3350 C   0  0  0  0  0  0  0  0  0  0  0  0
   -4.1734    5.4367    0.3195 O   0  0  0  0  0  0  0  0  0  0  0  0
   -1.8592    5.8433    0.4053 C   0  0  0  0  0  0  0  0  0  0  0  0
   -0.5324    5.3560    0.4558 C   0  0  0  0  0  0  0  0  0  0  0  0
    0.5167    6.2201    0.5094 N   0  0  0  0  0  0  0  0  0  0  0  0
    0.3383    7.5654    0.5150 C   0  0  0  0  0  0  0  0  0  0  0  0
   -0.9473    8.0980    0.4669 C   0  0  0  0  0  0  0  0  0  0  0  0
   -2.0455    7.2393    0.4133 C   0  0  0  0  0  0  0  0  0  0  0  0
   -2.7328    0.4383    0.0495 C   0  0  0  0  0  0  0  0  0  0  0  0
   -2.6548   -0.9650   -0.1687 C   0  0  0  0  0  0  0  0  0  0  0  0
    0.4727   -2.9198   -0.1388 C   0  0  0  0  0  0  0  0  0  0  0  0
    1.4088   -3.9373   -0.3387 C   0  0  0  0  0  0  0  0  0  0  0  0
    5.2072   -4.2567    1.4146 H   0  0  0  0  0  0  0  0  0  0  0  0
    5.6064   -3.5220   -0.1928 H   0  0  0  0  0  0  0  0  0  0  0  0
    5.9517   -5.2502    0.1202 H   0  0  0  0  0  0  0  0  0  0  0  0
    4.1409   -6.9187    0.3401 H   0  0  0  0  0  0  0  0  0  0  0  0
    2.4170   -6.4902    0.1417 H   0  0  0  0  0  0  0  0  0  0  0  0
    3.3070   -5.9468    1.6090 H   0  0  0  0  0  0  0  0  0  0  0  0
    4.6800   -5.8586   -1.9332 H   0  0  0  0  0  0  0  0  0  0  0  0
    4.2413   -4.1396   -2.2426 H   0  0  0  0  0  0  0  0  0  0  0  0
    2.9600   -5.3989   -2.1509 H   0  0  0  0  0  0  0  0  0  0  0  0
    4.1070   -2.2288    0.9500 H   0  0  0  0  0  0  0  0  0  0  0  0
    2.3849   -0.5049    1.2482 H   0  0  0  0  0  0  0  0  0  0  0  0
   -0.1566    0.0514    0.8617 H   0  0  0  0  0  0  0  0  0  0  0  0
   -1.3896   -4.8568   -0.2661 H   0  0  0  0  0  0  0  0  0  0  0  0
   -1.1944   -4.2581   -1.9489 H   0  0  0  0  0  0  0  0  0  0  0  0
   -4.9902   -3.3350   -1.0105 H   0  0  0  0  0  0  0  0  0  0  0  0
   -5.9965   -1.3894   -0.8172 H   0  0  0  0  0  0  0  0  0  0  0  0
   -6.0426    0.9882   -0.4132 H   0  0  0  0  0  0  0  0  0  0  0  0
   -4.9944    3.1026    0.0766 H   0  0  0  0  0  0  0  0  0  0  0  0
   -1.9483    3.0298    0.2523 H   0  0  0  0  0  0  0  0  0  0  0  0
   -0.3121    4.3034    0.4550 H   0  0  0  0  0  0  0  0  0  0  0  0
    1.1973    8.2218    0.5562 H   0  0  0  0  0  0  0  0  0  0  0  0
   -1.0924    9.1704    0.4696 H   0  0  0  0  0  0  0  0  0  0  0  0
   -3.0398    7.6654    0.3730 H   0  0  0  0  0  0  0  0  0  0  0  0
   -1.8497    0.9828    0.2738 H   0  0  0  0  0  0  0  0  0  0  0  0
    1.0989   -4.8710   -0.7869 H   0  0  0  0  0  0  0  0  0  0  0  0
  1 34  1  0  0  0  0
  1 35  1  0  0  0  0
  1 36  1  0  0  0  0
  2  1  1  0  0  0  0
  3  2  1  0  0  0  0
  3 37  1  0  0  0  0
  3 38  1  0  0  0  0
  3 39  1  0  0  0  0
  4  2  1  0  0  0  0
  4 40  1  0  0  0  0
  4 41  1  0  0  0  0
  4 42  1  0  0  0  0
  5  2  1  0  0  0  0
  6  5  2  0  0  0  0
  6 43  1  0  0  0  0
  7  6  1  0  0  0  0
  7 44  1  0  0  0  0
  8  7  2  0  0  0  0
  9  8  1  0  0  0  0
  9 45  1  0  0  0  0
 10  9  1  0  0  0  0
 11 10  2  0  0  0  0
 12 11  1  0  0  0  0
 12 46  1  0  0  0  0
 12 47  1  0  0  0  0
 13 12  1  0  0  0  0
 14 13  2  0  0  0  0
 15 13  1  0  0  0  0
 15 48  1  0  0  0  0
 16 15  1  0  0  0  0
 17 16  2  0  0  0  0
 17 49  1  0  0  0  0
 18 17  1  0  0  0  0
 18 50  1  0  0  0  0
 19 18  2  0  0  0  0
 20 19  1  0  0  0  0
 20 51  1  0  0  0  0
 21 20  2  0  0  0  0
 21 52  1  0  0  0  0
 22 21  1  0  0  0  0
 23 22  2  0  0  0  0
 24 22  1  0  0  0  0
 25 24  2  0  0  0  0
 25 53  1  0  0  0  0
 26 25  1  0  0  0  0
 27 26  2  0  0  0  0
 27 54  1  0  0  0  0
 28 27  1  0  0  0  0
 28 55  1  0  0  0  0
 29 28  2  0  0  0  0
 29 24  1  0  0  0  0
 29 56  1  0  0  0  0
 30 19  1  0  0  0  0
 30 57  1  0  0  0  0
 31 30  2  0  0  0  0
 31 10  1  0  0  0  0
 31 16  1  0  0  0  0
 32 11  1  0  0  0  0
 32  8  1  0  0  0  0
 33 32  2  0  0  0  0
 33  5  1  0  0  0  0
 33 58  1  0  0  0  0
M  END
>  <MOL Chiral Flag>
0

>  <energy>
167.12500524998268

$$$$
