>593.sdf
 OpenBabel10062215443D

 34 36  0  0  0  0  0  0  0  0999 V2000
    0.1563    0.3467    2.1829 O   0  0  0  0  0  0  0  0  0  0  0  0
   -0.0802    0.1873    0.7951 C   0  0  1  0  0  0  0  0  0  0  0  0
    0.1219   -1.2849    0.3580 C   0  0  0  0  0  0  0  0  0  0  0  0
   -0.4466   -2.3283    1.1174 C   0  0  0  0  0  0  0  0  0  0  0  0
   -0.2748   -3.6630    0.7346 C   0  0  0  0  0  0  0  0  0  0  0  0
    0.4459   -3.9763   -0.4206 C   0  0  0  0  0  0  0  0  0  0  0  0
    0.6528   -5.6503   -0.9029 Cl  0  0  0  0  0  0  0  0  0  0  0  0
    0.9971   -2.9550   -1.1954 C   0  0  0  0  0  0  0  0  0  0  0  0
    0.8425   -1.6209   -0.8128 C   0  0  0  0  0  0  0  0  0  0  0  0
   -1.5556    0.5386    0.5212 C   0  0  0  0  0  0  0  0  0  0  0  0
   -2.1509    0.2452   -0.7208 C   0  0  0  0  0  0  0  0  0  0  0  0
   -3.4474    0.5802   -0.9550 N   0  0  0  0  0  0  0  0  0  0  0  0
   -4.1872    1.2073   -0.0077 C   0  0  0  0  0  0  0  0  0  0  0  0
   -3.6424    1.5083    1.1968 N   0  0  0  0  0  0  0  0  0  0  0  0
   -2.3526    1.1864    1.4830 C   0  0  0  0  0  0  0  0  0  0  0  0
    0.8996    1.1596    0.0914 C   0  0  0  0  0  0  0  0  0  0  0  0
    0.4355    2.2210   -0.7265 C   0  0  0  0  0  0  0  0  0  0  0  0
    1.3310    3.1086   -1.3258 C   0  0  0  0  0  0  0  0  0  0  0  0
    2.7005    2.9693   -1.1247 C   0  0  0  0  0  0  0  0  0  0  0  0
    3.1861    1.9394   -0.3253 C   0  0  0  0  0  0  0  0  0  0  0  0
    2.3094    1.0352    0.2836 C   0  0  0  0  0  0  0  0  0  0  0  0
    3.0312   -0.2283    1.2807 Cl  0  0  0  0  0  0  0  0  0  0  0  0
    0.6954   -0.4034    2.5420 H   0  0  0  0  0  0  0  0  0  0  0  0
   -1.0111   -2.1060    2.0140 H   0  0  0  0  0  0  0  0  0  0  0  0
   -0.7036   -4.4544    1.3358 H   0  0  0  0  0  0  0  0  0  0  0  0
    1.5457   -3.1935   -2.0982 H   0  0  0  0  0  0  0  0  0  0  0  0
    1.2731   -0.8562   -1.4437 H   0  0  0  0  0  0  0  0  0  0  0  0
   -1.5884   -0.2506   -1.4996 H   0  0  0  0  0  0  0  0  0  0  0  0
   -5.2159    1.4733   -0.2153 H   0  0  0  0  0  0  0  0  0  0  0  0
   -1.9523    1.4616    2.4481 H   0  0  0  0  0  0  0  0  0  0  0  0
   -0.6158    2.3823   -0.9054 H   0  0  0  0  0  0  0  0  0  0  0  0
    0.9582    3.9136   -1.9455 H   0  0  0  0  0  0  0  0  0  0  0  0
    3.3891    3.6643   -1.5871 H   0  0  0  0  0  0  0  0  0  0  0  0
    4.2538    1.8431   -0.1724 H   0  0  0  0  0  0  0  0  0  0  0  0
  1 23  1  0  0  0  0
  2  1  1  1  0  0  0
  3  2  1  0  0  0  0
  4  3  2  0  0  0  0
  4 24  1  0  0  0  0
  5  4  1  0  0  0  0
  5 25  1  0  0  0  0
  6  5  2  0  0  0  0
  7  6  1  0  0  0  0
  8  6  1  0  0  0  0
  8 26  1  0  0  0  0
  9  8  2  0  0  0  0
  9  3  1  0  0  0  0
  9 27  1  0  0  0  0
 10  2  1  0  0  0  0
 11 10  2  0  0  0  0
 11 28  1  0  0  0  0
 12 11  1  0  0  0  0
 13 12  2  0  0  0  0
 13 29  1  0  0  0  0
 14 13  1  0  0  0  0
 15 14  2  0  0  0  0
 15 10  1  0  0  0  0
 15 30  1  0  0  0  0
 16  2  1  0  0  0  0
 17 16  2  0  0  0  0
 17 31  1  0  0  0  0
 18 17  1  0  0  0  0
 18 32  1  0  0  0  0
 19 18  2  0  0  0  0
 19 33  1  0  0  0  0
 20 19  1  0  0  0  0
 20 34  1  0  0  0  0
 21 20  2  0  0  0  0
 21 16  1  0  0  0  0
 22 21  1  0  0  0  0
M  END
>  <MOL Chiral Flag>
0

>  <energy>
45.413681908598846

$$$$
