>597.sdf
 OpenBabel10062215463D

 31 32  0  0  0  0  0  0  0  0999 V2000
   -2.0295    2.4241    0.2326 C   0  0  0  0  0  0  0  0  0  0  0  0
   -0.8992    1.3877    0.2083 C   0  0  2  0  0  0  0  0  0  0  0  0
   -1.4589   -0.3757    0.2753 S   0  0  0  0  0  0  0  0  0  0  0  0
   -3.2303   -0.2403   -0.0483 C   0  0  0  0  0  0  0  0  0  0  0  0
   -3.6989   -0.0532   -1.3563 C   0  0  0  0  0  0  0  0  0  0  0  0
   -5.0737    0.0257   -1.6059 C   0  0  0  0  0  0  0  0  0  0  0  0
   -5.9863   -0.0920   -0.5517 C   0  0  0  0  0  0  0  0  0  0  0  0
   -7.7103   -0.0044   -0.8683 Cl  0  0  0  0  0  0  0  0  0  0  0  0
   -5.5225   -0.2855    0.7541 C   0  0  0  0  0  0  0  0  0  0  0  0
   -4.1473   -0.3590    1.0063 C   0  0  0  0  0  0  0  0  0  0  0  0
    0.0038    1.6485    1.4047 C   0  0  0  0  0  0  0  0  0  0  0  0
   -0.4637    1.4576    2.5181 O   0  0  0  0  0  0  0  0  0  0  0  0
    1.4131    2.1659    1.2969 C   0  0  0  0  0  0  0  0  0  0  0  0
    2.1557    2.3724    2.4818 C   0  0  0  0  0  0  0  0  0  0  0  0
    3.4575    2.8790    2.4317 C   0  0  0  0  0  0  0  0  0  0  0  0
    4.0423    3.1885    1.2058 C   0  0  0  0  0  0  0  0  0  0  0  0
    3.3287    2.9894    0.0239 C   0  0  0  0  0  0  0  0  0  0  0  0
    2.0242    2.4821    0.0619 C   0  0  0  0  0  0  0  0  0  0  0  0
   -2.6368    2.3350    1.1577 H   0  0  0  0  0  0  0  0  0  0  0  0
   -2.6846    2.3186   -0.6542 H   0  0  0  0  0  0  0  0  0  0  0  0
   -1.5927    3.4457    0.1885 H   0  0  0  0  0  0  0  0  0  0  0  0
   -0.3855    1.5145   -0.7583 H   0  0  0  0  0  0  0  0  0  0  0  0
   -2.9990    0.0331   -2.1768 H   0  0  0  0  0  0  0  0  0  0  0  0
   -5.4296    0.1736   -2.6176 H   0  0  0  0  0  0  0  0  0  0  0  0
   -6.2269   -0.3827    1.5711 H   0  0  0  0  0  0  0  0  0  0  0  0
   -3.7970   -0.5151    2.0185 H   0  0  0  0  0  0  0  0  0  0  0  0
    1.7261    2.1470    3.4492 H   0  0  0  0  0  0  0  0  0  0  0  0
    4.0115    3.0358    3.3488 H   0  0  0  0  0  0  0  0  0  0  0  0
    5.0491    3.5857    1.1710 H   0  0  0  0  0  0  0  0  0  0  0  0
    3.7860    3.2339   -0.9262 H   0  0  0  0  0  0  0  0  0  0  0  0
    1.5153    2.3562   -0.8779 H   0  0  0  0  0  0  0  0  0  0  0  0
  1 19  1  0  0  0  0
  1 20  1  0  0  0  0
  1 21  1  0  0  0  0
  2  1  1  0  0  0  0
  2 22  1  6  0  0  0
  3  2  1  0  0  0  0
  4  3  1  0  0  0  0
  5  4  2  0  0  0  0
  5 23  1  0  0  0  0
  6  5  1  0  0  0  0
  6 24  1  0  0  0  0
  7  6  2  0  0  0  0
  8  7  1  0  0  0  0
  9  7  1  0  0  0  0
  9 25  1  0  0  0  0
 10  9  2  0  0  0  0
 10  4  1  0  0  0  0
 10 26  1  0  0  0  0
 11  2  1  0  0  0  0
 12 11  2  0  0  0  0
 13 11  1  0  0  0  0
 14 13  2  0  0  0  0
 14 27  1  0  0  0  0
 15 14  1  0  0  0  0
 15 28  1  0  0  0  0
 16 15  2  0  0  0  0
 16 29  1  0  0  0  0
 17 16  1  0  0  0  0
 17 30  1  0  0  0  0
 18 17  2  0  0  0  0
 18 13  1  0  0  0  0
 18 31  1  0  0  0  0
M  END
>  <MOL Chiral Flag>
0

>  <energy>
67.852842447037418

$$$$
