>600.sdf
 OpenBabel10062215473D

 57 58  0  0  0  0  0  0  0  0999 V2000
   -3.5760   -1.2513    3.4229 C   0  0  0  0  0  0  0  0  0  0  0  0
   -3.2758   -0.4672    2.1445 C   0  0  0  0  0  0  0  0  0  0  0  0
   -3.0787   -1.4238    0.9638 C   0  0  0  0  0  0  0  0  0  0  0  0
   -2.7972   -0.7345   -0.3849 C   0  0  0  0  0  0  0  0  0  0  0  0
   -1.4444   -0.1607   -0.5000 N   0  0  0  0  0  0  0  0  0  0  0  0
   -1.2768    1.1972   -1.0350 C   0  0  0  0  0  0  0  0  0  0  0  0
   -1.9946    2.3191   -0.2427 C   0  0  0  0  0  0  0  0  0  0  0  0
   -1.7356    3.6801   -0.9125 C   0  0  0  0  0  0  0  0  0  0  0  0
   -2.3762    4.8329   -0.1422 C   0  0  0  0  0  0  0  0  0  0  0  0
   -0.3063   -1.0588   -0.4681 C   0  0  0  0  0  0  0  0  0  0  0  0
   -0.1140   -2.0267   -1.5217 C   0  0  0  0  0  0  0  0  0  0  0  0
    0.9120   -2.9936   -1.3955 C   0  0  0  0  0  0  0  0  0  0  0  0
    1.7564   -3.0160   -0.2923 C   0  0  0  0  0  0  0  0  0  0  0  0
    1.6154   -2.0527    0.6980 C   0  0  0  0  0  0  0  0  0  0  0  0
    0.6097   -1.0653    0.6421 C   0  0  0  0  0  0  0  0  0  0  0  0
    0.5334   -0.1251    1.7234 N   0  0  0  0  0  0  0  0  0  0  0  0
    1.2809   -0.2142    2.6515 O   0  0  0  0  0  0  0  0  0  0  0  0
   -0.2078    0.8000    1.6757 O   0  0  0  0  0  0  0  0  0  0  0  0
    2.9863   -4.3319   -0.0896 S   0  0  0  0  0  0  0  0  0  0  0  0
    3.8051   -4.1591    1.1996 O   0  0  0  0  0  0  0  0  0  0  0  0
    2.2466   -5.6465    0.2021 O   0  0  0  0  0  0  0  0  0  0  0  0
    4.1591   -4.7661   -1.3412 N   0  0  0  0  0  0  0  0  0  0  0  0
    4.9571   -5.9597   -1.2896 C   0  0  0  0  0  0  0  0  0  0  0  0
    5.0512   -6.7538   -0.1228 C   0  0  0  0  0  0  0  0  0  0  0  0
    5.8200   -7.9238   -0.1190 C   0  0  0  0  0  0  0  0  0  0  0  0
    6.4999   -8.3220   -1.2698 C   0  0  0  0  0  0  0  0  0  0  0  0
    6.4241   -7.5451   -2.4267 C   0  0  0  0  0  0  0  0  0  0  0  0
    5.6639   -6.3682   -2.4372 C   0  0  0  0  0  0  0  0  0  0  0  0
   -0.9180   -2.0419   -2.7167 N   0  0  0  0  0  0  0  0  0  0  0  0
   -1.5963   -1.1061   -3.0091 O   0  0  0  0  0  0  0  0  0  0  0  0
   -0.7879   -2.9248   -3.5112 O   0  0  0  0  0  0  0  0  0  0  0  0
   -4.4993   -1.8580    3.3013 H   0  0  0  0  0  0  0  0  0  0  0  0
   -3.7232   -0.5510    4.2716 H   0  0  0  0  0  0  0  0  0  0  0  0
   -2.7297   -1.9294    3.6666 H   0  0  0  0  0  0  0  0  0  0  0  0
   -2.3747    0.1406    2.3146 H   0  0  0  0  0  0  0  0  0  0  0  0
   -4.1260    0.2170    1.9324 H   0  0  0  0  0  0  0  0  0  0  0  0
   -4.0305   -1.9904    0.8517 H   0  0  0  0  0  0  0  0  0  0  0  0
   -2.2726   -2.1579    1.1801 H   0  0  0  0  0  0  0  0  0  0  0  0
   -2.9235   -1.5339   -1.1374 H   0  0  0  0  0  0  0  0  0  0  0  0
   -3.5906    0.0116   -0.5968 H   0  0  0  0  0  0  0  0  0  0  0  0
   -0.1933    1.4363   -1.1111 H   0  0  0  0  0  0  0  0  0  0  0  0
   -1.6939    1.2198   -2.0645 H   0  0  0  0  0  0  0  0  0  0  0  0
   -3.0900    2.1431   -0.2120 H   0  0  0  0  0  0  0  0  0  0  0  0
   -1.6345    2.3782    0.7978 H   0  0  0  0  0  0  0  0  0  0  0  0
   -2.1416    3.6716   -1.9480 H   0  0  0  0  0  0  0  0  0  0  0  0
   -0.6405    3.8652   -0.9629 H   0  0  0  0  0  0  0  0  0  0  0  0
   -1.9633    4.8854    0.8878 H   0  0  0  0  0  0  0  0  0  0  0  0
   -2.1521    5.7915   -0.6581 H   0  0  0  0  0  0  0  0  0  0  0  0
   -3.4780    4.7067   -0.0908 H   0  0  0  0  0  0  0  0  0  0  0  0
    1.0512   -3.7441   -2.1632 H   0  0  0  0  0  0  0  0  0  0  0  0
    2.2884   -2.0865    1.5439 H   0  0  0  0  0  0  0  0  0  0  0  0
    4.1784   -4.1904   -2.1957 H   0  0  0  0  0  0  0  0  0  0  0  0
    4.5429   -6.4834    0.7875 H   0  0  0  0  0  0  0  0  0  0  0  0
    5.8851   -8.5258    0.7791 H   0  0  0  0  0  0  0  0  0  0  0  0
    7.0861   -9.2332   -1.2643 H   0  0  0  0  0  0  0  0  0  0  0  0
    6.9524   -7.8584   -3.3184 H   0  0  0  0  0  0  0  0  0  0  0  0
    5.6132   -5.7826   -3.3458 H   0  0  0  0  0  0  0  0  0  0  0  0
  1 32  1  0  0  0  0
  1 33  1  0  0  0  0
  1 34  1  0  0  0  0
  2  1  1  0  0  0  0
  2 35  1  0  0  0  0
  2 36  1  0  0  0  0
  3  2  1  0  0  0  0
  3 37  1  0  0  0  0
  3 38  1  0  0  0  0
  4  3  1  0  0  0  0
  4 39  1  0  0  0  0
  4 40  1  0  0  0  0
  5  4  1  0  0  0  0
  6  5  1  0  0  0  0
  6 41  1  0  0  0  0
  6 42  1  0  0  0  0
  7  6  1  0  0  0  0
  7 43  1  0  0  0  0
  7 44  1  0  0  0  0
  8  7  1  0  0  0  0
  8 45  1  0  0  0  0
  8 46  1  0  0  0  0
  9  8  1  0  0  0  0
  9 47  1  0  0  0  0
  9 48  1  0  0  0  0
  9 49  1  0  0  0  0
 10  5  1  0  0  0  0
 11 10  2  0  0  0  0
 12 11  1  0  0  0  0
 12 50  1  0  0  0  0
 13 12  2  0  0  0  0
 14 13  1  0  0  0  0
 14 51  1  0  0  0  0
 15 14  2  0  0  0  0
 15 10  1  0  0  0  0
 16 15  1  0  0  0  0
 17 16  2  0  0  0  0
 18 16  2  0  0  0  0
 19 13  1  0  0  0  0
 20 19  2  0  0  0  0
 21 19  2  0  0  0  0
 22 19  1  0  0  0  0
 22 52  1  0  0  0  0
 23 22  1  0  0  0  0
 24 23  2  0  0  0  0
 24 53  1  0  0  0  0
 25 24  1  0  0  0  0
 25 54  1  0  0  0  0
 26 25  2  0  0  0  0
 26 55  1  0  0  0  0
 27 26  1  0  0  0  0
 27 56  1  0  0  0  0
 28 27  2  0  0  0  0
 28 23  1  0  0  0  0
 28 57  1  0  0  0  0
 29 11  1  0  0  0  0
 30 29  2  0  0  0  0
 31 29  2  0  0  0  0
M  END
>  <MOL Chiral Flag>
0

>  <energy>
76.904602964014444

$$$$
