>602.sdf
 OpenBabel10062215503D

 42 45  0  0  0  0  0  0  0  0999 V2000
    0.9246    0.3907    1.2376 O   0  0  0  0  0  0  0  0  0  0  0  0
    1.1179    0.3565    2.4392 C   0  0  0  0  0  0  0  0  0  0  0  0
    0.0695    0.4877    3.3045 N   0  0  0  0  0  0  0  0  0  0  0  0
   -1.2914    0.7612    2.8757 C   0  0  0  0  0  0  0  0  0  0  0  0
   -2.2609   -0.2698    3.4607 C   0  0  0  0  0  0  0  0  0  0  0  0
   -3.6784    0.1619    3.2184 C   0  0  0  0  0  0  0  0  0  0  0  0
   -4.2928    0.3170    1.9770 C   0  0  0  0  0  0  0  0  0  0  0  0
   -5.5679    0.7651    2.2528 C   0  0  0  0  0  0  0  0  0  0  0  0
   -6.6216    1.1014    1.4062 C   0  0  0  0  0  0  0  0  0  0  0  0
   -7.8213    1.5518    1.9919 C   0  0  0  0  0  0  0  0  0  0  0  0
   -7.9360    1.6524    3.3987 C   0  0  0  0  0  0  0  0  0  0  0  0
   -6.8531    1.3011    4.2260 C   0  0  0  0  0  0  0  0  0  0  0  0
   -5.6823    0.8602    3.6143 C   0  0  0  0  0  0  0  0  0  0  0  0
   -4.5386    0.4895    4.2115 N   0  0  0  0  0  0  0  0  0  0  0  0
    2.4951    0.1565    2.9788 C   0  0  0  0  0  0  0  0  0  0  0  0
    2.5980   -0.1741    4.1514 O   0  0  0  0  0  0  0  0  0  0  0  0
    3.7665    0.3327    2.2038 C   0  0  0  0  0  0  0  0  0  0  0  0
    4.9922   -0.1167    2.7019 C   0  0  0  0  0  0  0  0  0  0  0  0
    5.9870    0.1704    1.8403 N   0  0  0  0  0  0  0  0  0  0  0  0
    5.4300    0.8085    0.8020 C   0  0  0  0  0  0  0  0  0  0  0  0
    6.0990    1.3055   -0.3136 C   0  0  0  0  0  0  0  0  0  0  0  0
    5.3491    1.9712   -1.2924 C   0  0  0  0  0  0  0  0  0  0  0  0
    3.9594    2.1332   -1.1294 C   0  0  0  0  0  0  0  0  0  0  0  0
    3.3077    1.6249    0.0102 C   0  0  0  0  0  0  0  0  0  0  0  0
    4.0678    0.9420    0.9747 C   0  0  0  0  0  0  0  0  0  0  0  0
    0.2485    0.4589    4.3195 H   0  0  0  0  0  0  0  0  0  0  0  0
   -1.5655    1.7632    3.2724 H   0  0  0  0  0  0  0  0  0  0  0  0
   -1.3929    0.7935    1.7689 H   0  0  0  0  0  0  0  0  0  0  0  0
   -2.0992   -0.3241    4.5593 H   0  0  0  0  0  0  0  0  0  0  0  0
   -2.0768   -1.2764    3.0277 H   0  0  0  0  0  0  0  0  0  0  0  0
   -3.8586    0.1374    1.0022 H   0  0  0  0  0  0  0  0  0  0  0  0
   -6.5220    1.0246    0.3313 H   0  0  0  0  0  0  0  0  0  0  0  0
   -8.6585    1.8252    1.3631 H   0  0  0  0  0  0  0  0  0  0  0  0
   -8.8595    2.0029    3.8411 H   0  0  0  0  0  0  0  0  0  0  0  0
   -6.9270    1.3766    5.3033 H   0  0  0  0  0  0  0  0  0  0  0  0
   -4.3468    0.4749    5.2383 H   0  0  0  0  0  0  0  0  0  0  0  0
    5.1473   -0.6275    3.6437 H   0  0  0  0  0  0  0  0  0  0  0  0
    6.9993   -0.0525    1.9680 H   0  0  0  0  0  0  0  0  0  0  0  0
    7.1699    1.1879   -0.4201 H   0  0  0  0  0  0  0  0  0  0  0  0
    5.8406    2.3713   -2.1697 H   0  0  0  0  0  0  0  0  0  0  0  0
    3.3896    2.6604   -1.8836 H   0  0  0  0  0  0  0  0  0  0  0  0
    2.2556    1.7952    0.1071 H   0  0  0  0  0  0  0  0  0  0  0  0
  2  1  2  0  0  0  0
  3  2  1  0  0  0  0
  3 26  1  0  0  0  0
  4  3  1  0  0  0  0
  4 27  1  0  0  0  0
  4 28  1  0  0  0  0
  5  4  1  0  0  0  0
  5 29  1  0  0  0  0
  5 30  1  0  0  0  0
  6  5  1  0  0  0  0
  7  6  2  0  0  0  0
  7 31  1  0  0  0  0
  8  7  1  0  0  0  0
  9  8  2  0  0  0  0
  9 32  1  0  0  0  0
 10  9  1  0  0  0  0
 10 33  1  0  0  0  0
 11 10  2  0  0  0  0
 11 34  1  0  0  0  0
 12 11  1  0  0  0  0
 12 35  1  0  0  0  0
 13 12  2  0  0  0  0
 13  8  1  0  0  0  0
 14 13  1  0  0  0  0
 14  6  1  0  0  0  0
 14 36  1  0  0  0  0
 15  2  1  0  0  0  0
 16 15  2  0  0  0  0
 17 15  1  0  0  0  0
 18 17  2  0  0  0  0
 18 37  1  0  0  0  0
 19 18  1  0  0  0  0
 19 38  1  0  0  0  0
 20 19  1  0  0  0  0
 21 20  2  0  0  0  0
 21 39  1  0  0  0  0
 22 21  1  0  0  0  0
 22 40  1  0  0  0  0
 23 22  2  0  0  0  0
 23 41  1  0  0  0  0
 24 23  1  0  0  0  0
 24 42  1  0  0  0  0
 25 24  2  0  0  0  0
 25 17  1  0  0  0  0
 25 20  1  0  0  0  0
M  END
>  <MOL Chiral Flag>
0

>  <energy>
111.94133726637097

$$$$
