>603.sdf
 OpenBabel10062215503D

 35 38  0  0  0  0  0  0  0  0999 V2000
    4.2789   -3.9646   -0.0310 C   0  0  0  0  0  0  0  0  0  0  0  0
    3.2542   -3.0453    0.0466 O   0  0  0  0  0  0  0  0  0  0  0  0
    3.4559   -1.7097    0.1921 C   0  0  0  0  0  0  0  0  0  0  0  0
    4.5924   -1.2617    0.2767 O   0  0  0  0  0  0  0  0  0  0  0  0
    2.2877   -0.7919    0.2161 C   0  0  0  0  0  0  0  0  0  0  0  0
    2.4389    0.5439    0.3353 C   0  0  0  0  0  0  0  0  0  0  0  0
    1.3444    1.3413    0.2300 O   0  0  0  0  0  0  0  0  0  0  0  0
    0.3939    1.0263   -0.7315 C   0  0  2  0  0  0  0  0  0  0  0  0
   -0.6999    1.9116   -0.6746 O   0  0  0  0  0  0  0  0  0  0  0  0
   -1.6777    1.2926    0.1334 C   0  0  1  0  0  0  0  0  0  0  0  0
   -3.0140    1.2327   -0.5439 C   0  0  0  0  0  0  0  0  0  0  0  0
   -3.7711    2.2653   -0.9625 C   0  0  0  0  0  0  0  0  0  0  0  0
   -3.3615    3.7032   -0.8137 C   0  0  0  0  0  0  0  0  0  0  0  0
   -3.3822   -0.1547   -0.6525 C   0  0  0  0  0  0  0  0  0  0  0  0
   -4.4237   -0.5756   -1.1305 O   0  0  0  0  0  0  0  0  0  0  0  0
   -2.4261   -0.9511   -0.1714 O   0  0  0  0  0  0  0  0  0  0  0  0
   -1.3380   -0.2167    0.2749 C   0  0  2  0  0  0  0  0  0  0  0  0
   -0.8904   -0.6459    1.6165 C   0  0  0  0  0  0  0  0  0  0  0  0
    0.3173   -1.2753    1.5609 C   0  0  0  0  0  0  0  0  0  0  0  0
    0.8717   -1.3414    0.1735 C   0  0  1  0  0  0  0  0  0  0  0  0
   -0.1199   -0.4190   -0.6051 C   0  0  2  0  0  0  0  0  0  0  0  0
    3.8477   -4.9776   -0.1677 H   0  0  0  0  0  0  0  0  0  0  0  0
    4.9326   -3.7371   -0.9006 H   0  0  0  0  0  0  0  0  0  0  0  0
    4.8777   -3.9522    0.9044 H   0  0  0  0  0  0  0  0  0  0  0  0
    3.4180    0.9947    0.4635 H   0  0  0  0  0  0  0  0  0  0  0  0
    0.8936    1.1211   -1.7226 H   0  0  0  0  0  0  0  0  0  0  0  0
   -1.7747    1.8086    1.1142 H   0  0  0  0  0  0  0  0  0  0  0  0
   -4.7286    2.0612   -1.4333 H   0  0  0  0  0  0  0  0  0  0  0  0
   -2.3795    3.8276   -0.3156 H   0  0  0  0  0  0  0  0  0  0  0  0
   -3.3078    4.1701   -1.8191 H   0  0  0  0  0  0  0  0  0  0  0  0
   -4.1257    4.2358   -0.2109 H   0  0  0  0  0  0  0  0  0  0  0  0
   -1.4714   -0.5426    2.5236 H   0  0  0  0  0  0  0  0  0  0  0  0
    0.7883   -1.7224    2.4273 H   0  0  0  0  0  0  0  0  0  0  0  0
    0.8095   -2.4125   -0.1129 H   0  0  0  0  0  0  0  0  0  0  0  0
   -0.3940   -0.7459   -1.6335 H   0  0  0  0  0  0  0  0  0  0  0  0
  1 22  1  0  0  0  0
  1 23  1  0  0  0  0
  1 24  1  0  0  0  0
  2  1  1  0  0  0  0
  3  2  1  0  0  0  0
  4  3  2  0  0  0  0
  5  3  1  0  0  0  0
  6  5  2  0  0  0  0
  6 25  1  0  0  0  0
  7  6  1  0  0  0  0
  8  7  1  0  0  0  0
  8 26  1  6  0  0  0
  9  8  1  0  0  0  0
 10  9  1  0  0  0  0
 10 27  1  1  0  0  0
 11 10  1  0  0  0  0
 12 11  2  0  0  0  0
 12 28  1  0  0  0  0
 13 12  1  0  0  0  0
 13 29  1  0  0  0  0
 13 30  1  0  0  0  0
 13 31  1  0  0  0  0
 14 11  1  0  0  0  0
 15 14  2  0  0  0  0
 16 14  1  0  0  0  0
 17 16  1  6  0  0  0
 17 10  1  0  0  0  0
 18 17  1  0  0  0  0
 18 32  1  0  0  0  0
 19 18  2  0  0  0  0
 19 33  1  0  0  0  0
 20 19  1  0  0  0  0
 20  5  1  0  0  0  0
 20 34  1  6  0  0  0
 21 20  1  0  0  0  0
 21  8  1  0  0  0  0
 21 17  1  0  0  0  0
 21 35  1  6  0  0  0
M  END
>  <MOL Chiral Flag>
0

>  <energy>
31.942910404980672

$$$$
