>605.sdf
 OpenBabel10062215513D

 19 20  0  0  0  0  0  0  0  0999 V2000
    3.3322    1.6898   -0.1160 O   0  0  0  0  0  0  0  0  0  0  0  0
    2.4533    0.8504    0.0032 C   0  0  0  0  0  0  0  0  0  0  0  0
    1.1584    1.2527   -0.1900 N   0  0  0  0  0  0  0  0  0  0  0  0
   -0.0447    0.5979   -0.1380 C   0  0  0  0  0  0  0  0  0  0  0  0
   -0.2447   -0.7958    0.1597 C   0  0  0  0  0  0  0  0  0  0  0  0
   -1.5878   -1.2818    0.1625 C   0  0  0  0  0  0  0  0  0  0  0  0
   -2.6731   -0.4601   -0.1084 C   0  0  0  0  0  0  0  0  0  0  0  0
   -2.4747    0.8738   -0.3927 C   0  0  0  0  0  0  0  0  0  0  0  0
   -1.1896    1.3941   -0.4079 C   0  0  0  0  0  0  0  0  0  0  0  0
    0.7638   -1.7513    0.4546 C   0  0  0  0  0  0  0  0  0  0  0  0
    0.4242   -2.9009    0.6863 O   0  0  0  0  0  0  0  0  0  0  0  0
    2.0849   -1.5044    0.5037 N   0  0  0  0  0  0  0  0  0  0  0  0
    2.8641   -0.4287    0.3235 C   0  0  0  0  0  0  0  0  0  0  0  0
    1.0925    2.2725   -0.4246 H   0  0  0  0  0  0  0  0  0  0  0  0
   -1.8097   -2.3199    0.3784 H   0  0  0  0  0  0  0  0  0  0  0  0
   -3.6766   -0.8663   -0.0966 H   0  0  0  0  0  0  0  0  0  0  0  0
   -3.3218    1.5140   -0.6039 H   0  0  0  0  0  0  0  0  0  0  0  0
   -1.0809    2.4478   -0.6363 H   0  0  0  0  0  0  0  0  0  0  0  0
    3.9306   -0.5836    0.4428 H   0  0  0  0  0  0  0  0  0  0  0  0
  2  1  2  0  0  0  0
  3  2  1  0  0  0  0
  3 14  1  0  0  0  0
  4  3  1  0  0  0  0
  5  4  2  0  0  0  0
  6  5  1  0  0  0  0
  6 15  1  0  0  0  0
  7  6  2  0  0  0  0
  7 16  1  0  0  0  0
  8  7  1  0  0  0  0
  8 17  1  0  0  0  0
  9  8  2  0  0  0  0
  9  4  1  0  0  0  0
  9 18  1  0  0  0  0
 10  5  1  0  0  0  0
 11 10  2  0  0  0  0
 12 10  1  0  0  0  0
 13 12  2  0  0  0  0
 13  2  1  0  0  0  0
 13 19  1  0  0  0  0
M  END
>  <MOL Chiral Flag>
0

>  <energy>
57.785843290781415

$$$$
