>606.sdf
 OpenBabel10062215513D

 21 21  0  0  0  0  0  0  0  0999 V2000
   -1.2878    2.1885   -0.1621 O   0  0  0  0  0  0  0  0  0  0  0  0
   -1.0601    0.9248    0.4401 C   0  0  1  0  0  0  0  0  0  0  0  0
   -2.0820   -0.1042    0.0020 C   0  0  0  0  0  0  0  0  0  0  0  0
   -2.2904   -1.2224    0.7160 C   0  0  0  0  0  0  0  0  0  0  0  0
   -2.8317    0.1035   -1.1982 C   0  0  0  0  0  0  0  0  0  0  0  0
   -3.4543    0.2438   -2.1656 N   0  0  0  0  0  0  0  0  0  0  0  0
    0.3579    0.4472    0.1653 C   0  0  0  0  0  0  0  0  0  0  0  0
    1.1528   -0.0046    1.2326 C   0  0  0  0  0  0  0  0  0  0  0  0
    2.4211   -0.5403    1.0014 C   0  0  0  0  0  0  0  0  0  0  0  0
    2.9136   -0.6262   -0.2976 C   0  0  0  0  0  0  0  0  0  0  0  0
    4.6374   -1.3401   -0.6046 Br  0  0  0  0  0  0  0  0  0  0  0  0
    2.1404   -0.1834   -1.3701 C   0  0  0  0  0  0  0  0  0  0  0  0
    0.8699    0.3574   -1.1405 C   0  0  0  0  0  0  0  0  0  0  0  0
   -2.1731    2.4928    0.1238 H   0  0  0  0  0  0  0  0  0  0  0  0
   -1.1778    1.0842    1.5220 H   0  0  0  0  0  0  0  0  0  0  0  0
   -1.7238   -1.4275    1.6179 H   0  0  0  0  0  0  0  0  0  0  0  0
   -3.0067   -1.9762    0.3991 H   0  0  0  0  0  0  0  0  0  0  0  0
    0.7846    0.0389    2.2526 H   0  0  0  0  0  0  0  0  0  0  0  0
    3.0180   -0.8921    1.8405 H   0  0  0  0  0  0  0  0  0  0  0  0
    2.5154   -0.2583   -2.3878 H   0  0  0  0  0  0  0  0  0  0  0  0
    0.2767    0.6940   -1.9869 H   0  0  0  0  0  0  0  0  0  0  0  0
  1 14  1  0  0  0  0
  2  1  1  0  0  0  0
  2 15  1  1  0  0  0
  3  2  1  0  0  0  0
  4  3  2  0  0  0  0
  4 16  1  0  0  0  0
  4 17  1  0  0  0  0
  5  3  1  0  0  0  0
  6  5  3  0  0  0  0
  7  2  1  0  0  0  0
  8  7  2  0  0  0  0
  8 18  1  0  0  0  0
  9  8  1  0  0  0  0
  9 19  1  0  0  0  0
 10  9  2  0  0  0  0
 11 10  1  0  0  0  0
 12 10  1  0  0  0  0
 12 20  1  0  0  0  0
 13 12  2  0  0  0  0
 13  7  1  0  0  0  0
 13 21  1  0  0  0  0
M  END
>  <MOL Chiral Flag>
0

>  <energy>
34.547264615528348

$$$$
