>61.sdf
 OpenBabel10052218163D

 54 59  0  0  0  0  0  0  0  0999 V2000
    4.6931    4.6862    2.7806 C   0  0  0  0  0  0  0  0  0  0  0  0
    4.1148    3.5343    2.2901 O   0  0  0  0  0  0  0  0  0  0  0  0
    2.7740    3.3132    2.2921 C   0  0  0  0  0  0  0  0  0  0  0  0
    2.0075    4.1546    2.7420 O   0  0  0  0  0  0  0  0  0  0  0  0
    2.2333    2.0513    1.7492 C   0  0  0  0  0  0  0  0  0  0  0  0
    0.8765    1.8386    1.7574 N   0  0  0  0  0  0  0  0  0  0  0  0
    0.3036    0.6950    1.2699 C   0  0  0  0  0  0  0  0  0  0  0  0
   -1.2028    0.5448    1.3116 C   0  0  2  0  0  0  0  0  0  0  0  0
   -1.5291   -0.5479    2.2154 N   0  0  0  0  0  0  0  0  0  0  0  0
   -2.3131   -1.6614    1.8447 C   0  0  0  0  0  0  0  0  0  0  0  0
   -2.5815   -2.6755    2.7787 C   0  0  0  0  0  0  0  0  0  0  0  0
   -3.3627   -3.7751    2.4170 C   0  0  0  0  0  0  0  0  0  0  0  0
   -3.8800   -3.8662    1.1241 C   0  0  0  0  0  0  0  0  0  0  0  0
   -3.6153   -2.8580    0.1935 C   0  0  0  0  0  0  0  0  0  0  0  0
   -2.8256   -1.7481    0.5553 C   0  0  0  0  0  0  0  0  0  0  0  0
   -2.5299   -0.6717   -0.4107 C   0  0  0  0  0  0  0  0  0  0  0  0
   -3.0441   -0.7408   -1.5170 O   0  0  0  0  0  0  0  0  0  0  0  0
   -1.7429    0.4118   -0.0628 N   0  0  0  0  0  0  0  0  0  0  0  0
   -1.4336    1.4620   -1.0300 C   0  0  0  0  0  0  0  0  0  0  0  0
   -1.1776    2.7898   -0.6005 C   0  0  0  0  0  0  0  0  0  0  0  0
   -0.8647    3.7967   -1.5170 C   0  0  0  0  0  0  0  0  0  0  0  0
   -0.7874    3.5107   -2.8779 C   0  0  0  0  0  0  0  0  0  0  0  0
   -0.3884    4.7796   -4.0216 Cl  0  0  0  0  0  0  0  0  0  0  0  0
   -1.0178    2.2126   -3.3275 C   0  0  0  0  0  0  0  0  0  0  0  0
   -1.3347    1.1961   -2.4222 C   0  0  0  0  0  0  0  0  0  0  0  0
    1.1538   -0.2880    0.7471 C   0  0  0  0  0  0  0  0  0  0  0  0
    0.8363   -1.4901    0.2118 N   0  0  0  0  0  0  0  0  0  0  0  0
    2.0106   -2.0531   -0.1439 C   0  0  0  0  0  0  0  0  0  0  0  0
    3.0642   -1.2212    0.1604 C   0  0  0  0  0  0  0  0  0  0  0  0
    4.3825   -1.5793   -0.1119 C   0  0  0  0  0  0  0  0  0  0  0  0
    4.6138   -2.8308   -0.7145 C   0  0  0  0  0  0  0  0  0  0  0  0
    3.5303   -3.6862   -1.0273 C   0  0  0  0  0  0  0  0  0  0  0  0
    2.2083   -3.2959   -0.7398 C   0  0  0  0  0  0  0  0  0  0  0  0
    2.5159   -0.0948    0.7291 C   0  0  0  0  0  0  0  0  0  0  0  0
    3.0960    1.0661    1.2229 C   0  0  0  0  0  0  0  0  0  0  0  0
    4.4556    4.8051    3.8596 H   0  0  0  0  0  0  0  0  0  0  0  0
    5.7941    4.6186    2.6632 H   0  0  0  0  0  0  0  0  0  0  0  0
    4.3270    5.5699    2.2153 H   0  0  0  0  0  0  0  0  0  0  0  0
   -1.6398    1.4527    1.7755 H   0  0  0  0  0  0  0  0  0  0  0  0
   -1.1819   -0.4899    3.1857 H   0  0  0  0  0  0  0  0  0  0  0  0
   -2.1851   -2.6109    3.7843 H   0  0  0  0  0  0  0  0  0  0  0  0
   -3.5676   -4.5552    3.1387 H   0  0  0  0  0  0  0  0  0  0  0  0
   -4.4862   -4.7176    0.8426 H   0  0  0  0  0  0  0  0  0  0  0  0
   -4.0238   -2.9447   -0.8056 H   0  0  0  0  0  0  0  0  0  0  0  0
   -1.2295    3.0677    0.4391 H   0  0  0  0  0  0  0  0  0  0  0  0
   -0.6811    4.8038   -1.1644 H   0  0  0  0  0  0  0  0  0  0  0  0
   -0.9436    1.9852   -4.3836 H   0  0  0  0  0  0  0  0  0  0  0  0
   -1.4661    0.2063   -2.8271 H   0  0  0  0  0  0  0  0  0  0  0  0
   -0.1086   -1.9102    0.0906 H   0  0  0  0  0  0  0  0  0  0  0  0
    5.2048   -0.9188    0.1306 H   0  0  0  0  0  0  0  0  0  0  0  0
    5.6260   -3.1402   -0.9397 H   0  0  0  0  0  0  0  0  0  0  0  0
    3.7189   -4.6459   -1.4904 H   0  0  0  0  0  0  0  0  0  0  0  0
    1.3727   -3.9422   -0.9750 H   0  0  0  0  0  0  0  0  0  0  0  0
    4.1700    1.2015    1.2003 H   0  0  0  0  0  0  0  0  0  0  0  0
  1 36  1  0  0  0  0
  1 37  1  0  0  0  0
  1 38  1  0  0  0  0
  2  1  1  0  0  0  0
  3  2  1  0  0  0  0
  4  3  2  0  0  0  0
  5  3  1  0  0  0  0
  6  5  2  0  0  0  0
  7  6  1  0  0  0  0
  8  7  1  0  0  0  0
  8 39  1  1  0  0  0
  9  8  1  0  0  0  0
  9 40  1  0  0  0  0
 10  9  1  0  0  0  0
 11 10  2  0  0  0  0
 11 41  1  0  0  0  0
 12 11  1  0  0  0  0
 12 42  1  0  0  0  0
 13 12  2  0  0  0  0
 13 43  1  0  0  0  0
 14 13  1  0  0  0  0
 14 44  1  0  0  0  0
 15 14  2  0  0  0  0
 15 10  1  0  0  0  0
 16 15  1  0  0  0  0
 17 16  2  0  0  0  0
 18 16  1  0  0  0  0
 18  8  1  0  0  0  0
 19 18  1  0  0  0  0
 20 19  2  0  0  0  0
 20 45  1  0  0  0  0
 21 20  1  0  0  0  0
 21 46  1  0  0  0  0
 22 21  2  0  0  0  0
 23 22  1  0  0  0  0
 24 22  1  0  0  0  0
 24 47  1  0  0  0  0
 25 24  2  0  0  0  0
 25 19  1  0  0  0  0
 25 48  1  0  0  0  0
 26  7  2  0  0  0  0
 27 26  1  0  0  0  0
 27 49  1  0  0  0  0
 28 27  1  0  0  0  0
 29 28  2  0  0  0  0
 30 29  1  0  0  0  0
 30 50  1  0  0  0  0
 31 30  2  0  0  0  0
 31 51  1  0  0  0  0
 32 31  1  0  0  0  0
 32 52  1  0  0  0  0
 33 32  2  0  0  0  0
 33 28  1  0  0  0  0
 33 53  1  0  0  0  0
 34 29  1  0  0  0  0
 34 26  1  0  0  0  0
 35 34  2  0  0  0  0
 35  5  1  0  0  0  0
 35 54  1  0  0  0  0
M  END
>  <MOL Chiral Flag>
0

>  <energy>
128.99536594929012

$$$$
