>615.sdf
 OpenBabel10062215543D

 44 46  0  0  0  0  0  0  0  0999 V2000
   -3.4816    1.6994    0.9625 C   0  0  0  0  0  0  0  0  0  0  0  0
   -2.7695    1.4088   -0.3386 C   0  0  0  0  0  0  0  0  0  0  0  0
   -2.8704    2.4472   -1.4267 C   0  0  0  0  0  0  0  0  0  0  0  0
   -2.0745    0.2653   -0.5582 C   0  0  0  0  0  0  0  0  0  0  0  0
   -1.9863   -0.8576    0.4514 C   0  0  0  0  0  0  0  0  0  0  0  0
   -1.1967   -2.0332   -0.1005 C   0  0  0  0  0  0  0  0  0  0  0  0
    0.2220   -2.0182   -0.1202 C   0  0  0  0  0  0  0  0  0  0  0  0
    0.9236   -3.1044   -0.6604 C   0  0  0  0  0  0  0  0  0  0  0  0
    0.2412   -4.2028   -1.1765 C   0  0  0  0  0  0  0  0  0  0  0  0
   -1.1574   -4.2322   -1.1714 C   0  0  0  0  0  0  0  0  0  0  0  0
   -1.8129   -5.2961   -1.6822 O   0  0  0  0  0  0  0  0  0  0  0  0
   -1.8817   -3.1497   -0.6368 C   0  0  0  0  0  0  0  0  0  0  0  0
   -3.2339   -3.1643   -0.6523 O   0  0  0  0  0  0  0  0  0  0  0  0
    1.0003   -0.8963    0.4502 C   0  0  0  0  0  0  0  0  0  0  0  0
    1.1403   -0.7871    1.8343 C   0  0  0  0  0  0  0  0  0  0  0  0
    1.8614    0.1888    2.3659 O   0  0  0  0  0  0  0  0  0  0  0  0
    2.4725    1.1140    1.6324 C   0  0  0  0  0  0  0  0  0  0  0  0
    3.2072    2.1043    2.2877 C   0  0  0  0  0  0  0  0  0  0  0  0
    3.8554    3.1003    1.5646 C   0  0  0  0  0  0  0  0  0  0  0  0
    4.5569    4.0479    2.2199 O   0  0  0  0  0  0  0  0  0  0  0  0
    3.7721    3.1135    0.1702 C   0  0  0  0  0  0  0  0  0  0  0  0
    3.0498    2.1346   -0.5243 C   0  0  0  0  0  0  0  0  0  0  0  0
    3.0275    2.2405   -1.8741 O   0  0  0  0  0  0  0  0  0  0  0  0
    2.3817    1.0990    0.2115 C   0  0  0  0  0  0  0  0  0  0  0  0
    1.6284    0.0462   -0.3762 C   0  0  0  0  0  0  0  0  0  0  0  0
    1.5051   -0.0564   -1.5820 O   0  0  0  0  0  0  0  0  0  0  0  0
   -3.3623    0.9116    1.7307 H   0  0  0  0  0  0  0  0  0  0  0  0
   -4.5674    1.8238    0.7689 H   0  0  0  0  0  0  0  0  0  0  0  0
   -3.0849    2.6444    1.3893 H   0  0  0  0  0  0  0  0  0  0  0  0
   -2.3353    2.1478   -2.3530 H   0  0  0  0  0  0  0  0  0  0  0  0
   -3.9405    2.6014   -1.6848 H   0  0  0  0  0  0  0  0  0  0  0  0
   -2.4477    3.4091   -1.0702 H   0  0  0  0  0  0  0  0  0  0  0  0
   -1.5869    0.1260   -1.5210 H   0  0  0  0  0  0  0  0  0  0  0  0
   -1.5510   -0.5217    1.4147 H   0  0  0  0  0  0  0  0  0  0  0  0
   -3.0297   -1.1699    0.6630 H   0  0  0  0  0  0  0  0  0  0  0  0
    2.0074   -3.1047   -0.6651 H   0  0  0  0  0  0  0  0  0  0  0  0
    0.8018   -5.0361   -1.5815 H   0  0  0  0  0  0  0  0  0  0  0  0
   -1.3425   -6.0543   -2.0572 H   0  0  0  0  0  0  0  0  0  0  0  0
   -3.7431   -3.8922   -1.0350 H   0  0  0  0  0  0  0  0  0  0  0  0
    0.6754   -1.5159    2.4868 H   0  0  0  0  0  0  0  0  0  0  0  0
    3.2726    2.0985    3.3691 H   0  0  0  0  0  0  0  0  0  0  0  0
    5.0175    4.7576    1.7495 H   0  0  0  0  0  0  0  0  0  0  0  0
    4.2745    3.8956   -0.3864 H   0  0  0  0  0  0  0  0  0  0  0  0
    2.5618    1.6674   -2.4884 H   0  0  0  0  0  0  0  0  0  0  0  0
  1 27  1  0  0  0  0
  1 28  1  0  0  0  0
  1 29  1  0  0  0  0
  2  1  1  0  0  0  0
  3  2  1  0  0  0  0
  3 30  1  0  0  0  0
  3 31  1  0  0  0  0
  3 32  1  0  0  0  0
  4  2  2  0  0  0  0
  4 33  1  0  0  0  0
  5  4  1  0  0  0  0
  5 34  1  0  0  0  0
  5 35  1  0  0  0  0
  6  5  1  0  0  0  0
  7  6  2  0  0  0  0
  8  7  1  0  0  0  0
  8 36  1  0  0  0  0
  9  8  2  0  0  0  0
  9 37  1  0  0  0  0
 10  9  1  0  0  0  0
 11 10  1  0  0  0  0
 11 38  1  0  0  0  0
 12 10  2  0  0  0  0
 12  6  1  0  0  0  0
 13 12  1  0  0  0  0
 13 39  1  0  0  0  0
 14  7  1  0  0  0  0
 15 14  2  0  0  0  0
 15 40  1  0  0  0  0
 16 15  1  0  0  0  0
 17 16  1  0  0  0  0
 18 17  2  0  0  0  0
 18 41  1  0  0  0  0
 19 18  1  0  0  0  0
 20 19  1  0  0  0  0
 20 42  1  0  0  0  0
 21 19  2  0  0  0  0
 21 43  1  0  0  0  0
 22 21  1  0  0  0  0
 23 22  1  0  0  0  0
 23 44  1  0  0  0  0
 24 22  2  0  0  0  0
 24 17  1  0  0  0  0
 25 24  1  0  0  0  0
 25 14  1  0  0  0  0
 26 25  2  0  0  0  0
M  END
>  <MOL Chiral Flag>
0

>  <energy>
51.996044700759256

$$$$
