>617_2.sdf
 OpenBabel10102219513D

 52 54  0  0  0  0  0  0  0  0999 V2000
   -3.3442    2.3995   -3.5956 C   0  0  0  0  0  0  0  0  0  0  0  0
   -1.8537    2.0669   -3.7327 C   0  0  0  0  0  0  0  0  0  0  0  0
   -1.5836    1.4420   -5.1103 C   0  0  0  0  0  0  0  0  0  0  0  0
   -1.3350    1.2422   -2.5537 C   0  0  0  0  0  0  0  0  0  0  0  0
   -0.7529   -0.0382   -2.7089 C   0  0  0  0  0  0  0  0  0  0  0  0
   -0.1584   -0.6851   -1.6196 C   0  0  0  0  0  0  0  0  0  0  0  0
   -0.1300   -0.0657   -0.3600 C   0  0  0  0  0  0  0  0  0  0  0  0
   -0.7756    1.1688   -0.1875 C   0  0  0  0  0  0  0  0  0  0  0  0
   -1.3671    1.8149   -1.2706 C   0  0  0  0  0  0  0  0  0  0  0  0
    0.7043   -0.6348    0.7807 C   0  0  1  0  0  0  0  0  0  0  0  0
    0.1594   -1.9712    1.2521 C   0  0  0  0  0  0  0  0  0  0  0  0
   -1.2799   -2.0188    1.6110 C   0  0  0  0  0  0  0  0  0  0  0  0
   -2.2475   -2.7606    0.7349 C   0  0  0  0  0  0  0  0  0  0  0  0
   -1.7012   -1.3352    2.5306 O   0  0  0  0  0  0  0  0  0  0  0  0
    0.9589   -3.0696    1.3520 C   0  0  0  0  0  0  0  0  0  0  0  0
    0.4557   -4.3950    1.8865 C   0  0  0  0  0  0  0  0  0  0  0  0
    2.3368   -2.9996    0.9965 N   0  0  0  0  0  0  0  0  0  0  0  0
    2.9279   -1.8336    0.4226 C   0  0  0  0  0  0  0  0  0  0  0  0
    2.1612   -0.6657    0.3085 C   0  0  0  0  0  0  0  0  0  0  0  0
    2.7468    0.4721   -0.2884 C   0  0  0  0  0  0  0  0  0  0  0  0
    2.1028    1.5040   -0.3913 O   0  0  0  0  0  0  0  0  0  0  0  0
    4.0254    0.4140   -0.7916 N   0  0  0  0  0  0  0  0  0  0  0  0
    4.6024    1.5614   -1.5183 C   0  0  0  0  0  0  0  0  0  0  0  0
    4.7724   -0.7339   -0.6433 C   0  0  0  0  0  0  0  0  0  0  0  0
    5.9150   -0.7653   -1.0751 O   0  0  0  0  0  0  0  0  0  0  0  0
    4.2331   -1.8496   -0.0218 N   0  0  0  0  0  0  0  0  0  0  0  0
    5.0612   -3.0605    0.1460 C   0  0  0  0  0  0  0  0  0  0  0  0
   -3.5485    2.9383   -2.6476 H   0  0  0  0  0  0  0  0  0  0  0  0
   -3.6564    3.0681   -4.4274 H   0  0  0  0  0  0  0  0  0  0  0  0
   -3.9561    1.4744   -3.6266 H   0  0  0  0  0  0  0  0  0  0  0  0
   -1.2869    3.0253   -3.7155 H   0  0  0  0  0  0  0  0  0  0  0  0
   -1.8960    2.1423   -5.9142 H   0  0  0  0  0  0  0  0  0  0  0  0
   -2.1406    0.4897   -5.2337 H   0  0  0  0  0  0  0  0  0  0  0  0
   -0.4946    1.2570   -5.2382 H   0  0  0  0  0  0  0  0  0  0  0  0
   -0.7068   -0.5230   -3.6727 H   0  0  0  0  0  0  0  0  0  0  0  0
    0.3367   -1.6366   -1.7706 H   0  0  0  0  0  0  0  0  0  0  0  0
   -0.7622    1.6650    0.7750 H   0  0  0  0  0  0  0  0  0  0  0  0
   -1.8006    2.7946   -1.1171 H   0  0  0  0  0  0  0  0  0  0  0  0
    0.6431    0.0633    1.6441 H   0  0  0  0  0  0  0  0  0  0  0  0
   -2.9919   -2.0347    0.3404 H   0  0  0  0  0  0  0  0  0  0  0  0
   -1.7240   -3.2122   -0.1356 H   0  0  0  0  0  0  0  0  0  0  0  0
   -2.7760   -3.5527    1.3006 H   0  0  0  0  0  0  0  0  0  0  0  0
    0.6104   -5.1835    1.1215 H   0  0  0  0  0  0  0  0  0  0  0  0
   -0.6095   -4.4013    2.1834 H   0  0  0  0  0  0  0  0  0  0  0  0
    1.0464   -4.6618    2.7897 H   0  0  0  0  0  0  0  0  0  0  0  0
    2.8980   -3.8523    1.1234 H   0  0  0  0  0  0  0  0  0  0  0  0
    5.5199    1.9172   -1.0084 H   0  0  0  0  0  0  0  0  0  0  0  0
    3.9005    2.4174   -1.6069 H   0  0  0  0  0  0  0  0  0  0  0  0
    4.8562    1.2485   -2.5554 H   0  0  0  0  0  0  0  0  0  0  0  0
    4.6019   -3.9179   -0.3881 H   0  0  0  0  0  0  0  0  0  0  0  0
    6.0914   -2.9450   -0.2495 H   0  0  0  0  0  0  0  0  0  0  0  0
    5.1620   -3.2948    1.2280 H   0  0  0  0  0  0  0  0  0  0  0  0
  1 28  1  0  0  0  0
  1 29  1  0  0  0  0
  1 30  1  0  0  0  0
  2  1  1  0  0  0  0
  2 31  1  0  0  0  0
  3  2  1  0  0  0  0
  3 32  1  0  0  0  0
  3 33  1  0  0  0  0
  3 34  1  0  0  0  0
  4  2  1  0  0  0  0
  5  4  2  0  0  0  0
  5 35  1  0  0  0  0
  6  5  1  0  0  0  0
  6 36  1  0  0  0  0
  7  6  2  0  0  0  0
  8  7  1  0  0  0  0
  8 37  1  0  0  0  0
  9  8  2  0  0  0  0
  9  4  1  0  0  0  0
  9 38  1  0  0  0  0
 10  7  1  0  0  0  0
 10 39  1  1  0  0  0
 11 10  1  0  0  0  0
 12 11  1  0  0  0  0
 13 12  1  0  0  0  0
 13 40  1  0  0  0  0
 13 41  1  0  0  0  0
 13 42  1  0  0  0  0
 14 12  2  0  0  0  0
 15 11  2  0  0  0  0
 16 15  1  0  0  0  0
 16 43  1  0  0  0  0
 16 44  1  0  0  0  0
 16 45  1  0  0  0  0
 17 15  1  0  0  0  0
 17 46  1  0  0  0  0
 18 17  1  0  0  0  0
 19 18  2  0  0  0  0
 19 10  1  0  0  0  0
 20 19  1  0  0  0  0
 21 20  2  0  0  0  0
 22 20  1  0  0  0  0
 23 22  1  0  0  0  0
 23 47  1  0  0  0  0
 23 48  1  0  0  0  0
 23 49  1  0  0  0  0
 24 22  1  0  0  0  0
 25 24  2  0  0  0  0
 26 24  1  0  0  0  0
 26 18  1  0  0  0  0
 27 26  1  0  0  0  0
 27 50  1  0  0  0  0
 27 51  1  0  0  0  0
 27 52  1  0  0  0  0
M  END
>  <MOL Chiral Flag>
0

>  <energy>
-63.46470157650603

$$$$
