>629.sdf
 OpenBabel10062216003D

 30 32  0  0  0  0  0  0  0  0999 V2000
   -1.6989   -3.6044   -0.7619 C   0  0  0  0  0  0  0  0  0  0  0  0
   -1.9522   -2.2591   -0.1456 C   0  0  0  0  0  0  0  0  0  0  0  0
   -3.0367   -2.0740    0.5412 N   0  0  0  0  0  0  0  0  0  0  0  0
   -3.4723   -0.7499    0.9884 C   0  0  0  0  0  0  0  0  0  0  0  0
   -2.3274    0.2205    1.3603 C   0  0  0  0  0  0  0  0  0  0  0  0
   -1.1963    0.0365    0.4038 C   0  0  0  0  0  0  0  0  0  0  0  0
   -1.0036   -1.1342   -0.2911 C   0  0  0  0  0  0  0  0  0  0  0  0
    0.1514   -1.0829   -0.9968 N   0  0  0  0  0  0  0  0  0  0  0  0
    0.6832    0.1323   -0.7418 C   0  0  0  0  0  0  0  0  0  0  0  0
   -0.1239    0.8431    0.1113 C   0  0  0  0  0  0  0  0  0  0  0  0
    0.2013    2.1270    0.5314 C   0  0  0  0  0  0  0  0  0  0  0  0
    1.3951    2.6943    0.0538 C   0  0  0  0  0  0  0  0  0  0  0  0
    2.2526    1.9653   -0.8067 C   0  0  0  0  0  0  0  0  0  0  0  0
    1.8853    0.6530   -1.2155 C   0  0  0  0  0  0  0  0  0  0  0  0
    3.4107    2.5525   -1.2054 O   0  0  0  0  0  0  0  0  0  0  0  0
    4.4956    1.8856   -1.7354 C   0  0  0  0  0  0  0  0  0  0  0  0
   -1.6472   -4.3847    0.0245 H   0  0  0  0  0  0  0  0  0  0  0  0
   -0.7626   -3.6285   -1.3520 H   0  0  0  0  0  0  0  0  0  0  0  0
   -2.5396   -3.8421   -1.4493 H   0  0  0  0  0  0  0  0  0  0  0  0
   -4.2265   -0.8255    1.7998 H   0  0  0  0  0  0  0  0  0  0  0  0
   -3.9855   -0.2979    0.1132 H   0  0  0  0  0  0  0  0  0  0  0  0
   -1.9333    0.0156    2.3782 H   0  0  0  0  0  0  0  0  0  0  0  0
   -2.7228    1.2587    1.3314 H   0  0  0  0  0  0  0  0  0  0  0  0
    0.5693   -1.8271   -1.5981 H   0  0  0  0  0  0  0  0  0  0  0  0
   -0.4468    2.6773    1.2010 H   0  0  0  0  0  0  0  0  0  0  0  0
    1.6687    3.6950    0.3630 H   0  0  0  0  0  0  0  0  0  0  0  0
    2.5062    0.0607   -1.8732 H   0  0  0  0  0  0  0  0  0  0  0  0
    4.9060    1.1871   -0.9744 H   0  0  0  0  0  0  0  0  0  0  0  0
    4.2226    1.3341   -2.6581 H   0  0  0  0  0  0  0  0  0  0  0  0
    5.2821    2.6249   -1.9908 H   0  0  0  0  0  0  0  0  0  0  0  0
  1 17  1  0  0  0  0
  1 18  1  0  0  0  0
  1 19  1  0  0  0  0
  2  1  1  0  0  0  0
  3  2  2  0  0  0  0
  4  3  1  0  0  0  0
  4 20  1  0  0  0  0
  4 21  1  0  0  0  0
  5  4  1  0  0  0  0
  5 22  1  0  0  0  0
  5 23  1  0  0  0  0
  6  5  1  0  0  0  0
  7  6  2  0  0  0  0
  7  2  1  0  0  0  0
  8  7  1  0  0  0  0
  8 24  1  0  0  0  0
  9  8  1  0  0  0  0
 10  9  2  0  0  0  0
 10  6  1  0  0  0  0
 11 10  1  0  0  0  0
 11 25  1  0  0  0  0
 12 11  2  0  0  0  0
 12 26  1  0  0  0  0
 13 12  1  0  0  0  0
 14 13  2  0  0  0  0
 14  9  1  0  0  0  0
 14 27  1  0  0  0  0
 15 13  1  0  0  0  0
 16 15  1  0  0  0  0
 16 28  1  0  0  0  0
 16 29  1  0  0  0  0
 16 30  1  0  0  0  0
M  END
>  <MOL Chiral Flag>
0

>  <energy>
50.185444354823822

$$$$
