>639.sdf
 OpenBabel10062216063D

 13 13  0  0  0  0  0  0  0  0999 V2000
    1.0246    0.0502   -0.0635 N   0  0  0  0  0  0  0  0  0  0  0  0
    2.3508    0.0894    0.2003 C   0  0  0  0  0  0  0  0  0  0  0  0
    2.9418    1.1599    0.1808 O   0  0  0  0  0  0  0  0  0  0  0  0
    3.0847   -1.1474    0.5255 C   0  0  0  0  0  0  0  0  0  0  0  0
    4.3876   -1.2304    0.9738 C   0  0  0  0  0  0  0  0  0  0  0  0
    4.6391   -2.5722    1.1540 C   0  0  0  0  0  0  0  0  0  0  0  0
    3.4805   -3.2325    0.7978 C   0  0  0  0  0  0  0  0  0  0  0  0
    2.5726   -2.3549    0.4344 O   0  0  0  0  0  0  0  0  0  0  0  0
    0.5101    0.9159   -0.2819 H   0  0  0  0  0  0  0  0  0  0  0  0
    0.5067   -0.8406   -0.0244 H   0  0  0  0  0  0  0  0  0  0  0  0
    5.0707   -0.4117    1.1606 H   0  0  0  0  0  0  0  0  0  0  0  0
    5.5585   -3.0194    1.5066 H   0  0  0  0  0  0  0  0  0  0  0  0
    3.3250   -4.3029    0.8123 H   0  0  0  0  0  0  0  0  0  0  0  0
  1  9  1  0  0  0  0
  1 10  1  0  0  0  0
  2  1  1  0  0  0  0
  3  2  2  0  0  0  0
  4  2  1  0  0  0  0
  5  4  2  0  0  0  0
  5 11  1  0  0  0  0
  6  5  1  0  0  0  0
  6 12  1  0  0  0  0
  7  6  2  0  0  0  0
  7 13  1  0  0  0  0
  8  7  1  0  0  0  0
  8  4  1  0  0  0  0
M  END
>  <MOL Chiral Flag>
0

>  <energy>
-14.146628031182098

$$$$
