>64.sdf
 OpenBabel10052218173D

 37 39  0  0  0  0  0  0  0  0999 V2000
   -4.9883   -0.9144    1.7408 C   0  0  0  0  0  0  0  0  0  0  0  0
   -4.5757   -0.7103    0.3583 N   0  0  0  0  0  0  0  0  0  0  0  0
   -5.5994   -0.6005   -0.6730 C   0  0  0  0  0  0  0  0  0  0  0  0
   -3.1766   -0.5892    0.0172 C   0  0  0  0  0  0  0  0  0  0  0  0
   -2.7541   -0.5728   -1.3336 C   0  0  0  0  0  0  0  0  0  0  0  0
   -1.4031   -0.4313   -1.6618 C   0  0  0  0  0  0  0  0  0  0  0  0
   -0.4452   -0.2762   -0.6529 C   0  0  0  0  0  0  0  0  0  0  0  0
    0.9028   -0.0770   -0.9633 C   0  0  0  0  0  0  0  0  0  0  0  0
    1.8408    0.1591    0.0597 C   0  0  0  0  0  0  0  0  0  0  0  0
    1.3882    0.1282    1.4089 C   0  0  0  0  0  0  0  0  0  0  0  0
    2.2789    0.2773    2.5062 N   0  0  0  0  0  0  0  0  0  0  0  0
    0.0750   -0.1014    1.6735 N   0  0  0  0  0  0  0  0  0  0  0  0
   -0.8465   -0.2862    0.6915 C   0  0  0  0  0  0  0  0  0  0  0  0
   -2.1921   -0.4596    1.0258 C   0  0  0  0  0  0  0  0  0  0  0  0
    3.2430    0.4898   -0.3217 C   0  0  0  0  0  0  0  0  0  0  0  0
    3.9065   -0.2368   -1.3285 C   0  0  0  0  0  0  0  0  0  0  0  0
    5.2135    0.1019   -1.7002 C   0  0  0  0  0  0  0  0  0  0  0  0
    6.0454   -0.8298   -2.9315 Cl  0  0  0  0  0  0  0  0  0  0  0  0
    5.8567    1.1852   -1.0938 C   0  0  0  0  0  0  0  0  0  0  0  0
    5.1987    1.9280   -0.1112 C   0  0  0  0  0  0  0  0  0  0  0  0
    5.9910    3.3094    0.6247 Cl  0  0  0  0  0  0  0  0  0  0  0  0
    3.9028    1.5804    0.2778 C   0  0  0  0  0  0  0  0  0  0  0  0
   -4.5465   -1.8590    2.1245 H   0  0  0  0  0  0  0  0  0  0  0  0
   -6.0905   -0.9969    1.8436 H   0  0  0  0  0  0  0  0  0  0  0  0
   -4.6636   -0.0614    2.3718 H   0  0  0  0  0  0  0  0  0  0  0  0
   -5.5157    0.3898   -1.1715 H   0  0  0  0  0  0  0  0  0  0  0  0
   -5.4856   -1.4106   -1.4215 H   0  0  0  0  0  0  0  0  0  0  0  0
   -6.6260   -0.6726   -0.2567 H   0  0  0  0  0  0  0  0  0  0  0  0
   -3.4626   -0.6681   -2.1434 H   0  0  0  0  0  0  0  0  0  0  0  0
   -1.1084   -0.4183   -2.7046 H   0  0  0  0  0  0  0  0  0  0  0  0
    1.2141   -0.0457   -2.0015 H   0  0  0  0  0  0  0  0  0  0  0  0
    3.2971    0.3249    2.3829 H   0  0  0  0  0  0  0  0  0  0  0  0
    1.9092    0.2427    3.4671 H   0  0  0  0  0  0  0  0  0  0  0  0
   -2.4622   -0.4585    2.0719 H   0  0  0  0  0  0  0  0  0  0  0  0
    3.4183   -1.0761   -1.8084 H   0  0  0  0  0  0  0  0  0  0  0  0
    6.8624    1.4544   -1.3908 H   0  0  0  0  0  0  0  0  0  0  0  0
    3.3980    2.1819    1.0237 H   0  0  0  0  0  0  0  0  0  0  0  0
  1 23  1  0  0  0  0
  1 24  1  0  0  0  0
  1 25  1  0  0  0  0
  2  1  1  0  0  0  0
  3  2  1  0  0  0  0
  3 26  1  0  0  0  0
  3 27  1  0  0  0  0
  3 28  1  0  0  0  0
  4  2  1  0  0  0  0
  5  4  2  0  0  0  0
  5 29  1  0  0  0  0
  6  5  1  0  0  0  0
  6 30  1  0  0  0  0
  7  6  2  0  0  0  0
  8  7  1  0  0  0  0
  8 31  1  0  0  0  0
  9  8  2  0  0  0  0
 10  9  1  0  0  0  0
 11 10  1  0  0  0  0
 11 32  1  0  0  0  0
 11 33  1  0  0  0  0
 12 10  2  0  0  0  0
 13 12  1  0  0  0  0
 13  7  1  0  0  0  0
 14 13  2  0  0  0  0
 14  4  1  0  0  0  0
 14 34  1  0  0  0  0
 15  9  1  0  0  0  0
 16 15  2  0  0  0  0
 16 35  1  0  0  0  0
 17 16  1  0  0  0  0
 18 17  1  0  0  0  0
 19 17  2  0  0  0  0
 19 36  1  0  0  0  0
 20 19  1  0  0  0  0
 21 20  1  0  0  0  0
 22 20  2  0  0  0  0
 22 15  1  0  0  0  0
 22 37  1  0  0  0  0
M  END
>  <MOL Chiral Flag>
0

>  <energy>
15.192906213209383

$$$$
