>643.sdf
 OpenBabel10062216123D

 47 50  0  0  0  0  0  0  0  0999 V2000
    1.9240   -1.6492    0.6563 C   0  0  0  0  0  0  0  0  0  0  0  0
    1.7087   -1.5648    2.0990 N   0  0  0  0  0  0  0  0  0  0  0  0
    0.3230   -1.5512    2.5815 C   0  0  0  0  0  0  0  0  0  0  0  0
   -0.4319   -2.8353    2.1964 C   0  0  0  0  0  0  0  0  0  0  0  0
   -1.8782   -2.8593    2.7449 C   0  0  0  0  0  0  0  0  0  0  0  0
   -2.7179   -1.7887    2.1674 N   0  0  0  0  0  0  0  0  0  0  0  0
   -3.0068   -0.5905    2.9567 C   0  0  0  0  0  0  0  0  0  0  0  0
   -2.4170   -0.3897    4.2468 C   0  0  0  0  0  0  0  0  0  0  0  0
   -2.6761    0.7525    5.0024 C   0  0  0  0  0  0  0  0  0  0  0  0
   -3.5173    1.7354    4.5170 C   0  0  0  0  0  0  0  0  0  0  0  0
   -4.1001    1.5844    3.2695 C   0  0  0  0  0  0  0  0  0  0  0  0
   -3.8574    0.4458    2.4841 C   0  0  0  0  0  0  0  0  0  0  0  0
   -4.6871    0.4434    0.9173 S   0  0  0  0  0  0  0  0  0  0  0  0
   -4.0868   -1.0487    0.1746 C   0  0  0  0  0  0  0  0  0  0  0  0
   -4.5480   -1.2822   -1.1310 C   0  0  0  0  0  0  0  0  0  0  0  0
   -4.1878   -2.4252   -1.8282 C   0  0  0  0  0  0  0  0  0  0  0  0
   -3.3649   -3.3634   -1.2295 C   0  0  0  0  0  0  0  0  0  0  0  0
   -2.9176   -4.8176   -2.1048 Cl  0  0  0  0  0  0  0  0  0  0  0  0
   -2.8935   -3.1560    0.0671 C   0  0  0  0  0  0  0  0  0  0  0  0
   -3.2301   -1.9821    0.8127 C   0  0  0  0  0  0  0  0  0  0  0  0
    2.8306   -1.4455    3.0094 C   0  0  0  0  0  0  0  0  0  0  0  0
    2.6949   -0.8151    4.2714 C   0  0  0  0  0  0  0  0  0  0  0  0
    3.7850   -0.7052    5.1428 C   0  0  0  0  0  0  0  0  0  0  0  0
    3.5620    0.0967    6.6929 Cl  0  0  0  0  0  0  0  0  0  0  0  0
    5.0331   -1.2248    4.7752 C   0  0  0  0  0  0  0  0  0  0  0  0
    6.4204   -1.1039    5.8498 Cl  0  0  0  0  0  0  0  0  0  0  0  0
    5.1846   -1.8490    3.5377 C   0  0  0  0  0  0  0  0  0  0  0  0
    4.1026   -1.9592    2.6618 C   0  0  0  0  0  0  0  0  0  0  0  0
    1.5902   -2.6302    0.2633 H   0  0  0  0  0  0  0  0  0  0  0  0
    2.9776   -1.5014    0.3569 H   0  0  0  0  0  0  0  0  0  0  0  0
    1.3557   -0.8391    0.1523 H   0  0  0  0  0  0  0  0  0  0  0  0
   -0.1989   -0.6662    2.1583 H   0  0  0  0  0  0  0  0  0  0  0  0
    0.2718   -1.4970    3.6803 H   0  0  0  0  0  0  0  0  0  0  0  0
    0.1151   -3.7055    2.6200 H   0  0  0  0  0  0  0  0  0  0  0  0
   -0.4403   -2.9356    1.0974 H   0  0  0  0  0  0  0  0  0  0  0  0
   -1.8438   -2.8675    3.8415 H   0  0  0  0  0  0  0  0  0  0  0  0
   -2.3654   -3.8428    2.5836 H   0  0  0  0  0  0  0  0  0  0  0  0
   -1.7414   -1.0811    4.7050 H   0  0  0  0  0  0  0  0  0  0  0  0
   -2.2136    0.8737    5.9739 H   0  0  0  0  0  0  0  0  0  0  0  0
   -3.7153    2.6215    5.1065 H   0  0  0  0  0  0  0  0  0  0  0  0
   -4.7525    2.3674    2.9018 H   0  0  0  0  0  0  0  0  0  0  0  0
   -5.2029   -0.5645   -1.6105 H   0  0  0  0  0  0  0  0  0  0  0  0
   -4.5572   -2.5839   -2.8335 H   0  0  0  0  0  0  0  0  0  0  0  0
   -2.2663   -3.9327    0.4656 H   0  0  0  0  0  0  0  0  0  0  0  0
    1.7609   -0.3797    4.5884 H   0  0  0  0  0  0  0  0  0  0  0  0
    6.1464   -2.2560    3.2520 H   0  0  0  0  0  0  0  0  0  0  0  0
    4.2684   -2.4699    1.7255 H   0  0  0  0  0  0  0  0  0  0  0  0
  1 29  1  0  0  0  0
  1 30  1  0  0  0  0
  1 31  1  0  0  0  0
  2  1  1  0  0  0  0
  3  2  1  0  0  0  0
  3 32  1  0  0  0  0
  3 33  1  0  0  0  0
  4  3  1  0  0  0  0
  4 34  1  0  0  0  0
  4 35  1  0  0  0  0
  5  4  1  0  0  0  0
  5 36  1  0  0  0  0
  5 37  1  0  0  0  0
  6  5  1  0  0  0  0
  7  6  1  0  0  0  0
  8  7  2  0  0  0  0
  8 38  1  0  0  0  0
  9  8  1  0  0  0  0
  9 39  1  0  0  0  0
 10  9  2  0  0  0  0
 10 40  1  0  0  0  0
 11 10  1  0  0  0  0
 11 41  1  0  0  0  0
 12 11  2  0  0  0  0
 12  7  1  0  0  0  0
 13 12  1  0  0  0  0
 14 13  1  0  0  0  0
 15 14  2  0  0  0  0
 15 42  1  0  0  0  0
 16 15  1  0  0  0  0
 16 43  1  0  0  0  0
 17 16  2  0  0  0  0
 18 17  1  0  0  0  0
 19 17  1  0  0  0  0
 19 44  1  0  0  0  0
 20 19  2  0  0  0  0
 20  6  1  0  0  0  0
 20 14  1  0  0  0  0
 21  2  1  0  0  0  0
 22 21  2  0  0  0  0
 22 45  1  0  0  0  0
 23 22  1  0  0  0  0
 24 23  1  0  0  0  0
 25 23  2  0  0  0  0
 26 25  1  0  0  0  0
 27 25  1  0  0  0  0
 27 46  1  0  0  0  0
 28 27  2  0  0  0  0
 28 21  1  0  0  0  0
 28 47  1  0  0  0  0
M  END
>  <MOL Chiral Flag>
0

>  <energy>
87.259979036099168

$$$$
