>644.sdf
 OpenBabel10062216133D

 98100  0  0  0  0  0  0  0  0999 V2000
    5.5735   -5.7109    1.4276 C   0  0  0  0  0  0  0  0  0  0  0  0
    5.8345   -5.0782    0.1222 N   0  3  0  0  0  0  0  0  0  0  0  0
    5.5580   -6.0188   -0.9777 C   0  0  0  0  0  0  0  0  0  0  0  0
    5.1238   -3.7844   -0.0375 C   0  0  0  0  0  0  0  0  0  0  0  0
    3.5820   -3.8819   -0.0353 C   0  0  0  0  0  0  0  0  0  0  0  0
    2.9495   -2.4905   -0.1725 C   0  0  0  0  0  0  0  0  0  0  0  0
    1.4972   -2.5700   -0.1560 N   0  0  0  0  0  0  0  0  0  0  0  0
    0.7317   -1.4371   -0.2236 C   0  0  0  0  0  0  0  0  0  0  0  0
    1.2964   -0.3578   -0.2952 O   0  0  0  0  0  0  0  0  0  0  0  0
   -0.7837   -1.4657   -0.1691 C   0  0  0  0  0  0  0  0  0  0  0  0
   -1.4823   -2.6785    0.0285 C   0  0  0  0  0  0  0  0  0  0  0  0
   -2.8870   -2.7170    0.1255 C   0  0  0  0  0  0  0  0  0  0  0  0
   -3.5912   -1.5076    0.0375 C   0  0  0  0  0  0  0  0  0  0  0  0
   -2.9361   -0.2790   -0.1615 C   0  0  0  0  0  0  0  0  0  0  0  0
   -1.5330   -0.2581   -0.2862 C   0  0  0  0  0  0  0  0  0  0  0  0
   -0.8918    0.9152   -0.5180 O   0  0  0  0  0  0  0  0  0  0  0  0
   -1.4809    2.1316   -0.6189 C   0  0  0  0  0  0  0  0  0  0  0  0
   -0.6923    3.2916   -0.8635 C   0  0  0  0  0  0  0  0  0  0  0  0
   -1.3144    4.5549   -0.8565 C   0  0  0  0  0  0  0  0  0  0  0  0
   -2.7008    4.6963   -0.6631 C   0  0  0  0  0  0  0  0  0  0  0  0
   -3.4634    3.5336   -0.4727 C   0  0  0  0  0  0  0  0  0  0  0  0
   -2.8742    2.2543   -0.4408 C   0  0  0  0  0  0  0  0  0  0  0  0
   -3.7533    1.0179   -0.2158 C   0  0  0  0  0  0  0  0  0  0  0  0
   -4.7703    0.9242   -1.3795 C   0  0  0  0  0  0  0  0  0  0  0  0
   -4.4965    1.1756    1.1355 C   0  0  0  0  0  0  0  0  0  0  0  0
   -3.4025    6.0757   -0.6645 C   0  0  0  0  0  0  0  0  0  0  0  0
   -4.4538    6.1191   -1.7954 C   0  0  0  0  0  0  0  0  0  0  0  0
   -4.0982    6.2975    0.6969 C   0  0  0  0  0  0  0  0  0  0  0  0
   -2.4302    7.2601   -0.8873 C   0  0  0  0  0  0  0  0  0  0  0  0
    0.7874    3.2521   -1.1413 C   0  0  0  0  0  0  0  0  0  0  0  0
    1.4415    4.2582   -0.9146 O   0  0  0  0  0  0  0  0  0  0  0  0
    1.3795    2.1562   -1.7178 N   0  0  0  0  0  0  0  0  0  0  0  0
    2.7935    1.9977   -2.0720 C   0  0  0  0  0  0  0  0  0  0  0  0
    3.7472    3.1592   -1.7381 C   0  0  0  0  0  0  0  0  0  0  0  0
    5.1871    2.8247   -2.1778 C   0  0  0  0  0  0  0  0  0  0  0  0
    6.1371    3.9424   -1.9580 N   0  3  0  0  0  0  0  0  0  0  0  0
    7.4315    3.6185   -2.5851 C   0  0  0  0  0  0  0  0  0  0  0  0
    6.3483    4.2247   -0.5253 C   0  0  0  0  0  0  0  0  0  0  0  0
   -3.6704   -4.0365    0.3378 C   0  0  0  0  0  0  0  0  0  0  0  0
   -2.7633   -5.2896    0.4163 C   0  0  0  0  0  0  0  0  0  0  0  0
   -4.6469   -4.2473   -0.8409 C   0  0  0  0  0  0  0  0  0  0  0  0
   -4.4654   -3.9577    1.6599 C   0  0  0  0  0  0  0  0  0  0  0  0
    6.2287   -6.5996    1.5618 H   0  0  0  0  0  0  0  0  0  0  0  0
    4.5209   -6.0534    1.5156 H   0  0  0  0  0  0  0  0  0  0  0  0
    5.7973   -5.0038    2.2562 H   0  0  0  0  0  0  0  0  0  0  0  0
    6.8589   -4.8589    0.0886 H   0  0  0  0  0  0  0  0  0  0  0  0
    5.7701   -5.5435   -1.9602 H   0  0  0  0  0  0  0  0  0  0  0  0
    4.5043   -6.3696   -0.9618 H   0  0  0  0  0  0  0  0  0  0  0  0
    6.2122   -6.9142   -0.8908 H   0  0  0  0  0  0  0  0  0  0  0  0
    5.4457   -3.3087   -0.9917 H   0  0  0  0  0  0  0  0  0  0  0  0
    5.4374   -3.0991    0.7827 H   0  0  0  0  0  0  0  0  0  0  0  0
    3.2277   -4.3247    0.9183 H   0  0  0  0  0  0  0  0  0  0  0  0
    3.2339   -4.5098   -0.8815 H   0  0  0  0  0  0  0  0  0  0  0  0
    3.2821   -2.0221   -1.1252 H   0  0  0  0  0  0  0  0  0  0  0  0
    3.2889   -1.8592    0.6787 H   0  0  0  0  0  0  0  0  0  0  0  0
    1.0704   -3.4987   -0.0840 H   0  0  0  0  0  0  0  0  0  0  0  0
   -0.9430   -3.5949    0.1174 H   0  0  0  0  0  0  0  0  0  0  0  0
   -4.6660   -1.5220    0.1274 H   0  0  0  0  0  0  0  0  0  0  0  0
   -0.7019    5.4257   -1.0295 H   0  0  0  0  0  0  0  0  0  0  0  0
   -4.5293    3.6260   -0.3352 H   0  0  0  0  0  0  0  0  0  0  0  0
   -4.2347    0.8068   -2.3465 H   0  0  0  0  0  0  0  0  0  0  0  0
   -5.4067    1.8306   -1.4442 H   0  0  0  0  0  0  0  0  0  0  0  0
   -5.4609    0.0648   -1.2598 H   0  0  0  0  0  0  0  0  0  0  0  0
   -3.7641    1.2475    1.9687 H   0  0  0  0  0  0  0  0  0  0  0  0
   -5.1702    0.3187    1.3408 H   0  0  0  0  0  0  0  0  0  0  0  0
   -5.1357    2.0812    1.1584 H   0  0  0  0  0  0  0  0  0  0  0  0
   -5.2304    5.3369   -1.6689 H   0  0  0  0  0  0  0  0  0  0  0  0
   -3.9658    5.9670   -2.7823 H   0  0  0  0  0  0  0  0  0  0  0  0
   -4.9746    7.1012   -1.8113 H   0  0  0  0  0  0  0  0  0  0  0  0
   -4.8625    5.5199    0.9025 H   0  0  0  0  0  0  0  0  0  0  0  0
   -4.6143    7.2819    0.7205 H   0  0  0  0  0  0  0  0  0  0  0  0
   -3.3518    6.2756    1.5204 H   0  0  0  0  0  0  0  0  0  0  0  0
   -1.9222    7.1789   -1.8725 H   0  0  0  0  0  0  0  0  0  0  0  0
   -1.6645    7.3030   -0.0825 H   0  0  0  0  0  0  0  0  0  0  0  0
   -2.9783    8.2274   -0.8760 H   0  0  0  0  0  0  0  0  0  0  0  0
    0.7818    1.3684   -1.9893 H   0  0  0  0  0  0  0  0  0  0  0  0
    2.8466    1.8132   -3.1672 H   0  0  0  0  0  0  0  0  0  0  0  0
    3.1719    1.0882   -1.5574 H   0  0  0  0  0  0  0  0  0  0  0  0
    3.7200    3.3303   -0.6430 H   0  0  0  0  0  0  0  0  0  0  0  0
    3.4252    4.0715   -2.2852 H   0  0  0  0  0  0  0  0  0  0  0  0
    5.1471    2.5953   -3.2677 H   0  0  0  0  0  0  0  0  0  0  0  0
    5.5380    1.9073   -1.6518 H   0  0  0  0  0  0  0  0  0  0  0  0
    5.7680    4.8066   -2.4217 H   0  0  0  0  0  0  0  0  0  0  0  0
    7.8792    2.7048   -2.1338 H   0  0  0  0  0  0  0  0  0  0  0  0
    8.1469    4.4620   -2.4655 H   0  0  0  0  0  0  0  0  0  0  0  0
    7.3062    3.4506   -3.6776 H   0  0  0  0  0  0  0  0  0  0  0  0
    5.4187    4.5923   -0.0459 H   0  0  0  0  0  0  0  0  0  0  0  0
    6.7054    3.3192    0.0138 H   0  0  0  0  0  0  0  0  0  0  0  0
    7.1004    5.0340   -0.3949 H   0  0  0  0  0  0  0  0  0  0  0  0
   -2.1859   -5.4226   -0.5243 H   0  0  0  0  0  0  0  0  0  0  0  0
   -3.3720   -6.2082    0.5642 H   0  0  0  0  0  0  0  0  0  0  0  0
   -2.0585   -5.2191    1.2729 H   0  0  0  0  0  0  0  0  0  0  0  0
   -4.0874   -4.3132   -1.7992 H   0  0  0  0  0  0  0  0  0  0  0  0
   -5.3796   -3.4183   -0.9249 H   0  0  0  0  0  0  0  0  0  0  0  0
   -5.2262   -5.1870   -0.7102 H   0  0  0  0  0  0  0  0  0  0  0  0
   -3.7740   -3.8127    2.5180 H   0  0  0  0  0  0  0  0  0  0  0  0
   -5.0409   -4.8936    1.8299 H   0  0  0  0  0  0  0  0  0  0  0  0
   -5.1934   -3.1205    1.6569 H   0  0  0  0  0  0  0  0  0  0  0  0
  1 43  1  0  0  0  0
  1 44  1  0  0  0  0
  1 45  1  0  0  0  0
  2  1  1  0  0  0  0
  2 46  1  0  0  0  0
  3  2  1  0  0  0  0
  3 47  1  0  0  0  0
  3 48  1  0  0  0  0
  3 49  1  0  0  0  0
  4  2  1  0  0  0  0
  4 50  1  0  0  0  0
  4 51  1  0  0  0  0
  5  4  1  0  0  0  0
  5 52  1  0  0  0  0
  5 53  1  0  0  0  0
  6  5  1  0  0  0  0
  6 54  1  0  0  0  0
  6 55  1  0  0  0  0
  7  6  1  0  0  0  0
  7 56  1  0  0  0  0
  8  7  1  0  0  0  0
  9  8  2  0  0  0  0
 10  8  1  0  0  0  0
 11 10  2  0  0  0  0
 11 57  1  0  0  0  0
 12 11  1  0  0  0  0
 13 12  2  0  0  0  0
 13 58  1  0  0  0  0
 14 13  1  0  0  0  0
 15 14  2  0  0  0  0
 15 10  1  0  0  0  0
 16 15  1  0  0  0  0
 17 16  1  0  0  0  0
 18 17  2  0  0  0  0
 19 18  1  0  0  0  0
 19 59  1  0  0  0  0
 20 19  2  0  0  0  0
 21 20  1  0  0  0  0
 21 60  1  0  0  0  0
 22 21  2  0  0  0  0
 22 17  1  0  0  0  0
 23 22  1  0  0  0  0
 23 14  1  0  0  0  0
 24 23  1  0  0  0  0
 24 61  1  0  0  0  0
 24 62  1  0  0  0  0
 24 63  1  0  0  0  0
 25 23  1  0  0  0  0
 25 64  1  0  0  0  0
 25 65  1  0  0  0  0
 25 66  1  0  0  0  0
 26 20  1  0  0  0  0
 27 26  1  0  0  0  0
 27 67  1  0  0  0  0
 27 68  1  0  0  0  0
 27 69  1  0  0  0  0
 28 26  1  0  0  0  0
 28 70  1  0  0  0  0
 28 71  1  0  0  0  0
 28 72  1  0  0  0  0
 29 26  1  0  0  0  0
 29 73  1  0  0  0  0
 29 74  1  0  0  0  0
 29 75  1  0  0  0  0
 30 18  1  0  0  0  0
 31 30  2  0  0  0  0
 32 30  1  0  0  0  0
 32 76  1  0  0  0  0
 33 32  1  0  0  0  0
 33 77  1  0  0  0  0
 33 78  1  0  0  0  0
 34 33  1  0  0  0  0
 34 79  1  0  0  0  0
 34 80  1  0  0  0  0
 35 34  1  0  0  0  0
 35 81  1  0  0  0  0
 35 82  1  0  0  0  0
 36 35  1  0  0  0  0
 36 83  1  0  0  0  0
 37 36  1  0  0  0  0
 37 84  1  0  0  0  0
 37 85  1  0  0  0  0
 37 86  1  0  0  0  0
 38 36  1  0  0  0  0
 38 87  1  0  0  0  0
 38 88  1  0  0  0  0
 38 89  1  0  0  0  0
 39 12  1  0  0  0  0
 40 39  1  0  0  0  0
 40 90  1  0  0  0  0
 40 91  1  0  0  0  0
 40 92  1  0  0  0  0
 41 39  1  0  0  0  0
 41 93  1  0  0  0  0
 41 94  1  0  0  0  0
 41 95  1  0  0  0  0
 42 39  1  0  0  0  0
 42 96  1  0  0  0  0
 42 97  1  0  0  0  0
 42 98  1  0  0  0  0
M  CHG  2   2   1  36   1
M  END
>  <MOL Chiral Flag>
0

>  <energy>
114.42078242144578

$$$$
