>646.sdf
 OpenBabel10062216143D

 32 31  0  0  0  0  0  0  0  0999 V2000
   -2.3637   -6.4744    3.8327 C   0  0  0  0  0  0  0  0  0  0  0  0
   -2.7328   -5.6798    2.5797 C   0  0  0  0  0  0  0  0  0  0  0  0
   -1.8181   -4.4698    2.3323 C   0  0  0  0  0  0  0  0  0  0  0  0
   -0.3642   -4.8598    2.0480 C   0  0  0  0  0  0  0  0  0  0  0  0
    0.6278   -3.3766    1.6903 S   0  0  1  0  0  0  0  0  0  0  0  0
    0.7731   -2.5978    3.0692 N   0  0  0  0  0  0  0  0  0  0  0  0
    2.0905   -3.8164    1.5181 O   0  0  0  0  0  0  0  0  0  0  0  0
    0.2448   -2.1169    0.4280 C   0  0  0  0  0  0  0  0  0  0  0  0
    1.3812   -1.0890    0.3043 C   0  0  0  0  0  0  0  0  0  0  0  0
    1.1167   -0.0236   -0.7879 C   0  0  2  0  0  0  0  0  0  0  0  0
    2.3245    0.7874   -0.9921 N   0  3  0  0  0  0  0  0  0  0  0  0
   -0.0535    0.8903   -0.4694 C   0  0  0  0  0  0  0  0  0  0  0  0
   -0.6989    0.8132    0.7111 O   0  5  0  0  0  0  0  0  0  0  0  0
   -0.4025    1.7288   -1.2853 O   0  0  0  0  0  0  0  0  0  0  0  0
   -3.0927   -7.3003    3.9721 H   0  0  0  0  0  0  0  0  0  0  0  0
   -2.3954   -5.8181    4.7282 H   0  0  0  0  0  0  0  0  0  0  0  0
   -1.3547   -6.9249    3.7409 H   0  0  0  0  0  0  0  0  0  0  0  0
   -3.7717   -5.3051    2.7066 H   0  0  0  0  0  0  0  0  0  0  0  0
   -2.7138   -6.3526    1.6950 H   0  0  0  0  0  0  0  0  0  0  0  0
   -1.8610   -3.7867    3.2086 H   0  0  0  0  0  0  0  0  0  0  0  0
   -2.2107   -3.9237    1.4470 H   0  0  0  0  0  0  0  0  0  0  0  0
   -0.3106   -5.5409    1.1723 H   0  0  0  0  0  0  0  0  0  0  0  0
    0.0830   -5.3691    2.9257 H   0  0  0  0  0  0  0  0  0  0  0  0
    1.1670   -3.0698    3.8956 H   0  0  0  0  0  0  0  0  0  0  0  0
   -0.7080   -1.6304    0.7137 H   0  0  0  0  0  0  0  0  0  0  0  0
    0.1082   -2.6318   -0.5465 H   0  0  0  0  0  0  0  0  0  0  0  0
    2.3008   -1.6486    0.0267 H   0  0  0  0  0  0  0  0  0  0  0  0
    1.5622   -0.5896    1.2810 H   0  0  0  0  0  0  0  0  0  0  0  0
    0.8916   -0.5627   -1.7361 H   0  0  0  0  0  0  0  0  0  0  0  0
    2.5671    1.3093   -0.1179 H   0  0  0  0  0  0  0  0  0  0  0  0
    2.1742    1.4712   -1.7696 H   0  0  0  0  0  0  0  0  0  0  0  0
    3.1286    0.1735   -1.2583 H   0  0  0  0  0  0  0  0  0  0  0  0
  1 15  1  0  0  0  0
  1 16  1  0  0  0  0
  1 17  1  0  0  0  0
  2  1  1  0  0  0  0
  2 18  1  0  0  0  0
  2 19  1  0  0  0  0
  3  2  1  0  0  0  0
  3 20  1  0  0  0  0
  3 21  1  0  0  0  0
  4  3  1  0  0  0  0
  4 22  1  0  0  0  0
  4 23  1  0  0  0  0
  5  4  1  1  0  0  0
  6  5  2  0  0  0  0
  6 24  1  0  0  0  0
  7  5  2  0  0  0  0
  8  5  1  0  0  0  0
  8 25  1  0  0  0  0
  8 26  1  0  0  0  0
  9  8  1  0  0  0  0
  9 27  1  0  0  0  0
  9 28  1  0  0  0  0
 10  9  1  0  0  0  0
 10 29  1  6  0  0  0
 11 10  1  0  0  0  0
 11 30  1  0  0  0  0
 11 31  1  0  0  0  0
 11 32  1  0  0  0  0
 12 10  1  0  0  0  0
 13 12  1  0  0  0  0
 14 12  2  0  0  0  0
M  CHG  2  11   1  13  -1
M  END
>  <MOL Chiral Flag>
0

>  <energy>
13.421177740917209

$$$$
