>649.sdf
 OpenBabel10062216163D

 38 39  0  0  0  0  0  0  0  0999 V2000
   -4.7129    3.6577   -0.4482 N   0  0  0  0  0  0  0  0  0  0  0  0
   -4.5258    1.9863    0.0903 S   0  0  0  0  0  0  0  0  0  0  0  0
   -4.4620    2.0651    1.6231 O   0  0  0  0  0  0  0  0  0  0  0  0
   -5.9069    1.3530   -0.1368 O   0  0  0  0  0  0  0  0  0  0  0  0
   -3.1832    1.0142   -0.6096 C   0  0  0  0  0  0  0  0  0  0  0  0
   -1.9586    1.6232   -0.9225 C   0  0  0  0  0  0  0  0  0  0  0  0
   -1.8462    2.9602   -0.7321 F   0  0  0  0  0  0  0  0  0  0  0  0
   -0.8918    0.8575   -1.4742 C   0  0  0  0  0  0  0  0  0  0  0  0
   -1.1171   -0.5207   -1.7033 C   0  0  0  0  0  0  0  0  0  0  0  0
   -2.3460   -1.1233   -1.3942 C   0  0  0  0  0  0  0  0  0  0  0  0
   -3.3734   -0.3475   -0.8425 C   0  0  0  0  0  0  0  0  0  0  0  0
   -2.5379   -2.5964   -1.6634 C   0  0  0  0  0  0  0  0  0  0  0  0
   -1.6066   -3.3228   -0.9442 F   0  0  0  0  0  0  0  0  0  0  0  0
   -2.3574   -2.8428   -3.0126 F   0  0  0  0  0  0  0  0  0  0  0  0
   -3.8039   -3.0283   -1.3056 F   0  0  0  0  0  0  0  0  0  0  0  0
    0.3889    1.4572   -1.8131 N   0  0  0  0  0  0  0  0  0  0  0  0
    0.8940    2.6120   -1.0664 C   0  0  0  0  0  0  0  0  0  0  0  0
    2.3177    2.4682   -0.4897 C   0  0  0  0  0  0  0  0  0  0  0  0
    3.3848    2.4425   -1.5795 C   0  0  0  0  0  0  0  0  0  0  0  0
    3.6254    1.0761   -2.2232 C   0  0  0  0  0  0  0  0  0  0  0  0
    2.3998    0.1992   -2.4959 C   0  0  0  0  0  0  0  0  0  0  0  0
    1.1492    0.9414   -2.9610 C   0  0  0  0  0  0  0  0  0  0  0  0
   -4.0292    4.2482    0.0764 H   0  0  0  0  0  0  0  0  0  0  0  0
   -4.4699    3.6968   -1.4632 H   0  0  0  0  0  0  0  0  0  0  0  0
   -0.3340   -1.1470   -2.1084 H   0  0  0  0  0  0  0  0  0  0  0  0
   -4.3269   -0.7967   -0.5967 H   0  0  0  0  0  0  0  0  0  0  0  0
    0.8589    3.5091   -1.7227 H   0  0  0  0  0  0  0  0  0  0  0  0
    0.2751    2.8107   -0.1735 H   0  0  0  0  0  0  0  0  0  0  0  0
    2.4874    3.4075    0.0828 H   0  0  0  0  0  0  0  0  0  0  0  0
    2.4248    1.6199    0.2199 H   0  0  0  0  0  0  0  0  0  0  0  0
    4.3649    2.7697   -1.1682 H   0  0  0  0  0  0  0  0  0  0  0  0
    3.1018    3.1916   -2.3524 H   0  0  0  0  0  0  0  0  0  0  0  0
    4.3049    0.4669   -1.5872 H   0  0  0  0  0  0  0  0  0  0  0  0
    4.1665    1.2809   -3.1734 H   0  0  0  0  0  0  0  0  0  0  0  0
    2.1198   -0.3770   -1.5857 H   0  0  0  0  0  0  0  0  0  0  0  0
    2.7198   -0.5443   -3.2586 H   0  0  0  0  0  0  0  0  0  0  0  0
    0.5367    0.2055   -3.5174 H   0  0  0  0  0  0  0  0  0  0  0  0
    1.3741    1.7343   -3.7058 H   0  0  0  0  0  0  0  0  0  0  0  0
  1 23  1  0  0  0  0
  1 24  1  0  0  0  0
  2  1  1  0  0  0  0
  3  2  2  0  0  0  0
  4  2  2  0  0  0  0
  5  2  1  0  0  0  0
  6  5  2  0  0  0  0
  7  6  1  0  0  0  0
  8  6  1  0  0  0  0
  9  8  2  0  0  0  0
  9 25  1  0  0  0  0
 10  9  1  0  0  0  0
 11 10  2  0  0  0  0
 11  5  1  0  0  0  0
 11 26  1  0  0  0  0
 12 10  1  0  0  0  0
 13 12  1  0  0  0  0
 14 12  1  0  0  0  0
 15 12  1  0  0  0  0
 16  8  1  0  0  0  0
 17 16  1  0  0  0  0
 17 27  1  0  0  0  0
 17 28  1  0  0  0  0
 18 17  1  0  0  0  0
 18 29  1  0  0  0  0
 18 30  1  0  0  0  0
 19 18  1  0  0  0  0
 19 31  1  0  0  0  0
 19 32  1  0  0  0  0
 20 19  1  0  0  0  0
 20 33  1  0  0  0  0
 20 34  1  0  0  0  0
 21 20  1  0  0  0  0
 21 35  1  0  0  0  0
 21 36  1  0  0  0  0
 22 21  1  0  0  0  0
 22 16  1  0  0  0  0
 22 37  1  0  0  0  0
 22 38  1  0  0  0  0
M  END
>  <MOL Chiral Flag>
0

>  <energy>
-27.366188555045014

$$$$
