>652.sdf
 OpenBabel10062216193D

 90 89  0  0  0  0  0  0  0  0999 V2000
    6.7825    8.9054    3.4917 C   0  0  0  0  0  0  0  0  0  0  0  0
    7.6303    7.6565    3.7202 C   0  0  0  0  0  0  0  0  0  0  0  0
    7.0941    6.4111    2.9985 C   0  0  0  0  0  0  0  0  0  0  0  0
    5.7236    5.9286    3.5116 C   0  0  0  0  0  0  0  0  0  0  0  0
    5.3405    4.6184    2.8110 C   0  0  0  0  0  0  0  0  0  0  0  0
    4.0034    4.0343    3.2999 C   0  0  0  0  0  0  0  0  0  0  0  0
    3.7596    2.6842    2.6069 C   0  0  0  0  0  0  0  0  0  0  0  0
    2.4488    1.9954    3.0355 C   0  0  0  0  0  0  0  0  0  0  0  0
    2.2235    0.6519    2.2983 C   0  0  0  0  0  0  0  0  0  0  0  0
    3.2451   -0.4376    2.6928 C   0  0  0  0  0  0  0  0  0  0  0  0
    3.2146   -1.7089    1.8207 C   0  0  0  0  0  0  0  0  0  0  0  0
    1.9579   -2.5928    1.9223 C   0  0  0  0  0  0  0  0  0  0  0  0
    0.7803   -1.9311    1.5125 O   0  0  0  0  0  0  0  0  0  0  0  0
    0.5873   -1.9789    0.1064 C   0  0  2  0  0  0  0  0  0  0  0  0
   -0.3076   -0.8892   -0.2441 N   0  0  0  0  0  0  0  0  0  0  0  0
   -1.5268   -0.7335    0.3497 C   0  0  0  0  0  0  0  0  0  0  0  0
   -1.9440   -1.5721    1.1376 O   0  0  0  0  0  0  0  0  0  0  0  0
   -2.3137    0.5335    0.1406 C   0  0  0  0  0  0  0  0  0  0  0  0
   -3.7672    0.3134   -0.2999 C   0  0  0  0  0  0  0  0  0  0  0  0
   -4.4779    1.6756   -0.3409 C   0  0  0  0  0  0  0  0  0  0  0  0
   -5.9676    1.5746   -0.6840 C   0  0  0  0  0  0  0  0  0  0  0  0
   -6.5990    2.9753   -0.6516 C   0  0  0  0  0  0  0  0  0  0  0  0
   -8.0981    2.9378   -0.9606 C   0  0  0  0  0  0  0  0  0  0  0  0
   -8.6961    4.3428   -0.9106 C   0  0  0  0  0  0  0  0  0  0  0  0
    0.0249   -3.2261   -0.2642 O   0  0  0  0  0  0  0  0  0  0  0  0
    0.3327   -3.5973   -1.9661 P   0  0  1  0  0  0  0  0  0  0  0  0
   -1.1527   -3.5405   -2.8608 O   0  5  0  0  0  0  0  0  0  0  0  0
    1.2607   -2.5079   -2.5790 O   0  0  0  0  0  0  0  0  0  0  0  0
    1.0880   -5.1849   -2.1306 O   0  0  0  0  0  0  0  0  0  0  0  0
    1.9139   -5.2764   -3.2795 C   0  0  0  0  0  0  0  0  0  0  0  0
    1.2838   -6.2247   -4.3270 C   0  0  0  0  0  0  0  0  0  0  0  0
    2.0804   -6.4217   -5.5830 N   0  3  0  0  0  0  0  0  0  0  0  0
    2.2672   -5.1443   -6.3135 C   0  0  0  0  0  0  0  0  0  0  0  0
    3.4054   -7.0254   -5.3022 C   0  0  0  0  0  0  0  0  0  0  0  0
    1.3311   -7.3490   -6.4666 C   0  0  0  0  0  0  0  0  0  0  0  0
    7.2587    9.7682    4.0043 H   0  0  0  0  0  0  0  0  0  0  0  0
    6.7170    9.1317    2.4062 H   0  0  0  0  0  0  0  0  0  0  0  0
    5.7627    8.7773    3.9068 H   0  0  0  0  0  0  0  0  0  0  0  0
    8.6517    7.8637    3.3318 H   0  0  0  0  0  0  0  0  0  0  0  0
    7.7115    7.4534    4.8100 H   0  0  0  0  0  0  0  0  0  0  0  0
    7.8346    5.5977    3.1642 H   0  0  0  0  0  0  0  0  0  0  0  0
    7.0408    6.6096    1.9052 H   0  0  0  0  0  0  0  0  0  0  0  0
    5.7884    5.7480    4.6069 H   0  0  0  0  0  0  0  0  0  0  0  0
    4.9436    6.6945    3.3164 H   0  0  0  0  0  0  0  0  0  0  0  0
    5.2822    4.7928    1.7136 H   0  0  0  0  0  0  0  0  0  0  0  0
    6.1436    3.8742    3.0090 H   0  0  0  0  0  0  0  0  0  0  0  0
    4.0486    3.8756    4.3998 H   0  0  0  0  0  0  0  0  0  0  0  0
    3.1758    4.7413    3.0721 H   0  0  0  0  0  0  0  0  0  0  0  0
    3.7336    2.8436    1.5063 H   0  0  0  0  0  0  0  0  0  0  0  0
    4.6226    2.0366    2.8539 H   0  0  0  0  0  0  0  0  0  0  0  0
    2.4357    1.8290    4.1349 H   0  0  0  0  0  0  0  0  0  0  0  0
    1.6072    2.6758    2.7785 H   0  0  0  0  0  0  0  0  0  0  0  0
    1.2042    0.2878    2.5439 H   0  0  0  0  0  0  0  0  0  0  0  0
    2.2710    0.8419    1.2039 H   0  0  0  0  0  0  0  0  0  0  0  0
    3.1220   -0.6978    3.7668 H   0  0  0  0  0  0  0  0  0  0  0  0
    4.2681   -0.0408    2.5554 H   0  0  0  0  0  0  0  0  0  0  0  0
    4.0685   -2.3417    2.1475 H   0  0  0  0  0  0  0  0  0  0  0  0
    3.4093   -1.4255    0.7660 H   0  0  0  0  0  0  0  0  0  0  0  0
    1.8248   -2.9032    2.9803 H   0  0  0  0  0  0  0  0  0  0  0  0
    2.1108   -3.5361    1.3489 H   0  0  0  0  0  0  0  0  0  0  0  0
    1.5603   -1.7971   -0.3975 H   0  0  0  0  0  0  0  0  0  0  0  0
    0.0400   -0.1595   -0.8848 H   0  0  0  0  0  0  0  0  0  0  0  0
   -2.3269    1.0543    1.1229 H   0  0  0  0  0  0  0  0  0  0  0  0
   -1.7984    1.1952   -0.5892 H   0  0  0  0  0  0  0  0  0  0  0  0
   -3.8015   -0.1758   -1.2977 H   0  0  0  0  0  0  0  0  0  0  0  0
   -4.2807   -0.3395    0.4402 H   0  0  0  0  0  0  0  0  0  0  0  0
   -3.9725    2.3284   -1.0866 H   0  0  0  0  0  0  0  0  0  0  0  0
   -4.3892    2.1495    0.6626 H   0  0  0  0  0  0  0  0  0  0  0  0
   -6.4747    0.9263    0.0644 H   0  0  0  0  0  0  0  0  0  0  0  0
   -6.0918    1.1255   -1.6934 H   0  0  0  0  0  0  0  0  0  0  0  0
   -6.4539    3.4161    0.3603 H   0  0  0  0  0  0  0  0  0  0  0  0
   -6.0883    3.6238   -1.3976 H   0  0  0  0  0  0  0  0  0  0  0  0
   -8.2613    2.5108   -1.9736 H   0  0  0  0  0  0  0  0  0  0  0  0
   -8.6183    2.2999   -0.2132 H   0  0  0  0  0  0  0  0  0  0  0  0
   -9.7821    4.2970   -1.1356 H   0  0  0  0  0  0  0  0  0  0  0  0
   -8.5618    4.7850    0.1001 H   0  0  0  0  0  0  0  0  0  0  0  0
   -8.2049    4.9993   -1.6605 H   0  0  0  0  0  0  0  0  0  0  0  0
    2.1314   -4.3007   -3.7435 H   0  0  0  0  0  0  0  0  0  0  0  0
    2.8886   -5.6780   -2.9395 H   0  0  0  0  0  0  0  0  0  0  0  0
    1.1153   -7.2088   -3.8314 H   0  0  0  0  0  0  0  0  0  0  0  0
    0.2807   -5.8146   -4.5847 H   0  0  0  0  0  0  0  0  0  0  0  0
    2.9273   -4.4436   -5.7612 H   0  0  0  0  0  0  0  0  0  0  0  0
    2.7563   -5.3131   -7.2994 H   0  0  0  0  0  0  0  0  0  0  0  0
    1.2911   -4.6426   -6.4973 H   0  0  0  0  0  0  0  0  0  0  0  0
    4.0496   -6.3468   -4.7053 H   0  0  0  0  0  0  0  0  0  0  0  0
    3.2995   -7.9870   -4.7523 H   0  0  0  0  0  0  0  0  0  0  0  0
    3.9588   -7.2318   -6.2468 H   0  0  0  0  0  0  0  0  0  0  0  0
    1.8770   -7.5294   -7.4214 H   0  0  0  0  0  0  0  0  0  0  0  0
    0.3305   -6.9371   -6.7274 H   0  0  0  0  0  0  0  0  0  0  0  0
    1.1796   -8.3378   -5.9785 H   0  0  0  0  0  0  0  0  0  0  0  0
  1 36  1  0  0  0  0
  1 37  1  0  0  0  0
  1 38  1  0  0  0  0
  2  1  1  0  0  0  0
  2 39  1  0  0  0  0
  2 40  1  0  0  0  0
  3  2  1  0  0  0  0
  3 41  1  0  0  0  0
  3 42  1  0  0  0  0
  4  3  1  0  0  0  0
  4 43  1  0  0  0  0
  4 44  1  0  0  0  0
  5  4  1  0  0  0  0
  5 45  1  0  0  0  0
  5 46  1  0  0  0  0
  6  5  1  0  0  0  0
  6 47  1  0  0  0  0
  6 48  1  0  0  0  0
  7  6  1  0  0  0  0
  7 49  1  0  0  0  0
  7 50  1  0  0  0  0
  8  7  1  0  0  0  0
  8 51  1  0  0  0  0
  8 52  1  0  0  0  0
  9  8  1  0  0  0  0
  9 53  1  0  0  0  0
  9 54  1  0  0  0  0
 10  9  1  0  0  0  0
 10 55  1  0  0  0  0
 10 56  1  0  0  0  0
 11 10  1  0  0  0  0
 11 57  1  0  0  0  0
 11 58  1  0  0  0  0
 12 11  1  0  0  0  0
 12 59  1  0  0  0  0
 12 60  1  0  0  0  0
 13 12  1  0  0  0  0
 14 13  1  0  0  0  0
 14 61  1  6  0  0  0
 15 14  1  0  0  0  0
 15 62  1  0  0  0  0
 16 15  1  0  0  0  0
 17 16  2  0  0  0  0
 18 16  1  0  0  0  0
 18 63  1  0  0  0  0
 18 64  1  0  0  0  0
 19 18  1  0  0  0  0
 19 65  1  0  0  0  0
 19 66  1  0  0  0  0
 20 19  1  0  0  0  0
 20 67  1  0  0  0  0
 20 68  1  0  0  0  0
 21 20  1  0  0  0  0
 21 69  1  0  0  0  0
 21 70  1  0  0  0  0
 22 21  1  0  0  0  0
 22 71  1  0  0  0  0
 22 72  1  0  0  0  0
 23 22  1  0  0  0  0
 23 73  1  0  0  0  0
 23 74  1  0  0  0  0
 24 23  1  0  0  0  0
 24 75  1  0  0  0  0
 24 76  1  0  0  0  0
 24 77  1  0  0  0  0
 25 14  1  0  0  0  0
 26 25  1  1  0  0  0
 27 26  1  0  0  0  0
 28 26  2  0  0  0  0
 29 26  1  0  0  0  0
 30 29  1  0  0  0  0
 30 78  1  0  0  0  0
 30 79  1  0  0  0  0
 31 30  1  0  0  0  0
 31 80  1  0  0  0  0
 31 81  1  0  0  0  0
 32 31  1  0  0  0  0
 33 32  1  0  0  0  0
 33 82  1  0  0  0  0
 33 83  1  0  0  0  0
 33 84  1  0  0  0  0
 34 32  1  0  0  0  0
 34 85  1  0  0  0  0
 34 86  1  0  0  0  0
 34 87  1  0  0  0  0
 35 32  1  0  0  0  0
 35 88  1  0  0  0  0
 35 89  1  0  0  0  0
 35 90  1  0  0  0  0
M  CHG  2  27  -1  32   1
M  END
>  <MOL Chiral Flag>
0

>  <energy>
-227.5419771922264

$$$$
