>654.sdf
 OpenBabel10062216203D

 34 36  0  0  0  0  0  0  0  0999 V2000
   -2.7578    0.6976    0.3827 C   0  0  0  0  0  0  0  0  0  0  0  0
   -1.6798    0.6643   -0.4262 C   0  0  0  0  0  0  0  0  0  0  0  0
   -0.9946    1.9716   -0.7960 C   0  0  0  0  0  0  0  0  0  0  0  0
    0.3882    2.1771   -0.1546 C   0  0  0  0  0  0  0  0  0  0  0  0
    1.3564    0.9980   -0.3585 C   0  0  2  0  0  0  0  0  0  0  0  0
    0.8982   -0.2451    0.4907 C   0  0  1  0  0  0  0  0  0  0  0  0
    0.0293   -1.2645   -0.2674 C   0  0  2  0  0  0  0  0  0  0  0  0
   -1.1493   -0.6330   -1.0767 C   0  0  1  0  0  0  0  0  0  0  0  0
   -2.2225   -1.7496   -1.1886 C   0  0  0  0  0  0  0  0  0  0  0  0
   -2.0352   -2.4738    0.0909 C   0  0  0  0  0  0  0  0  0  0  0  0
   -2.7843   -3.3527    0.4891 O   0  0  0  0  0  0  0  0  0  0  0  0
   -0.7057   -2.2334    0.6236 C   0  0  0  0  0  0  0  0  0  0  0  0
   -0.2031   -2.8648    1.6951 C   0  0  0  0  0  0  0  0  0  0  0  0
    2.0462   -0.8010    1.0341 O   0  0  0  0  0  0  0  0  0  0  0  0
    3.0758    0.0447    0.9560 C   0  0  0  0  0  0  0  0  0  0  0  0
    4.1646   -0.1773    1.4597 O   0  0  0  0  0  0  0  0  0  0  0  0
    2.7327    1.2099    0.1896 C   0  0  0  0  0  0  0  0  0  0  0  0
    3.5357    2.2560   -0.0442 C   0  0  0  0  0  0  0  0  0  0  0  0
   -3.1089    1.6390    0.7939 H   0  0  0  0  0  0  0  0  0  0  0  0
   -3.2974   -0.1975    0.6625 H   0  0  0  0  0  0  0  0  0  0  0  0
   -1.6117    2.8467   -0.4954 H   0  0  0  0  0  0  0  0  0  0  0  0
   -0.9133    2.0121   -1.9040 H   0  0  0  0  0  0  0  0  0  0  0  0
    0.8172    3.1008   -0.5978 H   0  0  0  0  0  0  0  0  0  0  0  0
    0.2650    2.3600    0.9355 H   0  0  0  0  0  0  0  0  0  0  0  0
    1.4959    0.7714   -1.4393 H   0  0  0  0  0  0  0  0  0  0  0  0
    0.3152    0.1232    1.3656 H   0  0  0  0  0  0  0  0  0  0  0  0
    0.6607   -1.8598   -0.9639 H   0  0  0  0  0  0  0  0  0  0  0  0
   -0.8405   -0.3297   -2.1008 H   0  0  0  0  0  0  0  0  0  0  0  0
   -1.9649   -2.4720   -1.9935 H   0  0  0  0  0  0  0  0  0  0  0  0
   -3.2399   -1.3450   -1.3773 H   0  0  0  0  0  0  0  0  0  0  0  0
    0.8087   -2.6808    2.0324 H   0  0  0  0  0  0  0  0  0  0  0  0
   -0.8103   -3.5719    2.2517 H   0  0  0  0  0  0  0  0  0  0  0  0
    3.1996    3.0844   -0.6582 H   0  0  0  0  0  0  0  0  0  0  0  0
    4.5301    2.2946    0.3896 H   0  0  0  0  0  0  0  0  0  0  0  0
  1 19  1  0  0  0  0
  1 20  1  0  0  0  0
  2  1  2  0  0  0  0
  3  2  1  0  0  0  0
  3 21  1  0  0  0  0
  3 22  1  0  0  0  0
  4  3  1  0  0  0  0
  4 23  1  0  0  0  0
  4 24  1  0  0  0  0
  5  4  1  0  0  0  0
  5 25  1  6  0  0  0
  6  5  1  0  0  0  0
  6 26  1  1  0  0  0
  7  6  1  0  0  0  0
  7 27  1  6  0  0  0
  8  7  1  0  0  0  0
  8  2  1  0  0  0  0
  8 28  1  6  0  0  0
  9  8  1  0  0  0  0
  9 29  1  0  0  0  0
  9 30  1  0  0  0  0
 10  9  1  0  0  0  0
 11 10  2  0  0  0  0
 12 10  1  0  0  0  0
 12  7  1  0  0  0  0
 13 12  2  0  0  0  0
 13 31  1  0  0  0  0
 13 32  1  0  0  0  0
 14  6  1  0  0  0  0
 15 14  1  0  0  0  0
 16 15  2  0  0  0  0
 17 15  1  0  0  0  0
 17  5  1  0  0  0  0
 18 17  2  0  0  0  0
 18 33  1  0  0  0  0
 18 34  1  0  0  0  0
M  END
>  <MOL Chiral Flag>
0

>  <energy>
55.630180683014501

$$$$
