>656.sdf
 OpenBabel10062216213D

 55 58  0  0  0  0  0  0  0  0999 V2000
   -5.5643    0.4097   -9.4398 C   0  0  0  0  0  0  0  0  0  0  0  0
   -5.0655    0.0740   -8.0374 C   0  0  0  0  0  0  0  0  0  0  0  0
   -3.7717    0.8301   -7.7141 C   0  0  0  0  0  0  0  0  0  0  0  0
   -3.2822    0.5007   -6.2990 C   0  0  0  0  0  0  0  0  0  0  0  0
   -1.9991    1.2717   -5.9664 C   0  0  0  0  0  0  0  0  0  0  0  0
   -1.5301    0.9699   -4.5384 C   0  0  0  0  0  0  0  0  0  0  0  0
   -0.3378    1.7307   -4.2100 N   0  0  0  0  0  0  0  0  0  0  0  0
    0.2738    1.6800   -2.9201 C   0  0  0  0  0  0  0  0  0  0  0  0
   -0.2218    0.8485   -1.8967 C   0  0  0  0  0  0  0  0  0  0  0  0
    0.3845    0.8373   -0.6377 C   0  0  0  0  0  0  0  0  0  0  0  0
    1.5032    1.6544   -0.3744 C   0  0  0  0  0  0  0  0  0  0  0  0
    2.1239    1.7006    0.9157 N   0  0  0  0  0  0  0  0  0  0  0  0
    1.7707    0.8399    2.0056 C   0  0  0  0  0  0  0  0  0  0  0  0
    1.8333   -0.5783    1.8835 C   0  0  0  0  0  0  0  0  0  0  0  0
    2.2857   -1.2209    0.7078 C   0  0  0  0  0  0  0  0  0  0  0  0
    2.3366   -2.6158    0.6362 C   0  0  0  0  0  0  0  0  0  0  0  0
    1.9497   -3.3911    1.7284 C   0  0  0  0  0  0  0  0  0  0  0  0
    1.5195   -2.7764    2.9042 C   0  0  0  0  0  0  0  0  0  0  0  0
    1.4653   -1.3801    2.9923 C   0  0  0  0  0  0  0  0  0  0  0  0
    1.0721   -0.8037    4.1551 N   0  0  0  0  0  0  0  0  0  0  0  0
    1.0240    0.5416    4.3155 C   0  0  0  0  0  0  0  0  0  0  0  0
    0.6151    1.0725    5.5450 C   0  0  0  0  0  0  0  0  0  0  0  0
    0.5485    2.4541    5.7275 C   0  0  0  0  0  0  0  0  0  0  0  0
    0.8860    3.3143    4.6829 C   0  0  0  0  0  0  0  0  0  0  0  0
    1.2958    2.7996    3.4493 C   0  0  0  0  0  0  0  0  0  0  0  0
    1.3770    1.4025    3.2483 C   0  0  0  0  0  0  0  0  0  0  0  0
    1.9894    2.4847   -1.3956 C   0  0  0  0  0  0  0  0  0  0  0  0
    1.3857    2.4931   -2.6555 C   0  0  0  0  0  0  0  0  0  0  0  0
   -4.8052    0.1238  -10.1987 H   0  0  0  0  0  0  0  0  0  0  0  0
   -6.5015   -0.1493   -9.6454 H   0  0  0  0  0  0  0  0  0  0  0  0
   -5.7740    1.4974   -9.5247 H   0  0  0  0  0  0  0  0  0  0  0  0
   -4.8854   -1.0211   -7.9713 H   0  0  0  0  0  0  0  0  0  0  0  0
   -5.8533    0.3509   -7.3029 H   0  0  0  0  0  0  0  0  0  0  0  0
   -2.9863    0.5505   -8.4507 H   0  0  0  0  0  0  0  0  0  0  0  0
   -3.9604    1.9240   -7.7899 H   0  0  0  0  0  0  0  0  0  0  0  0
   -3.0882   -0.5916   -6.2181 H   0  0  0  0  0  0  0  0  0  0  0  0
   -4.0737    0.7786   -5.5682 H   0  0  0  0  0  0  0  0  0  0  0  0
   -2.1967    2.3629   -6.0556 H   0  0  0  0  0  0  0  0  0  0  0  0
   -1.1975    0.9922   -6.6851 H   0  0  0  0  0  0  0  0  0  0  0  0
   -1.3151   -0.1169   -4.4416 H   0  0  0  0  0  0  0  0  0  0  0  0
   -2.3427    1.2497   -3.8324 H   0  0  0  0  0  0  0  0  0  0  0  0
    0.0680    2.3570   -4.9233 H   0  0  0  0  0  0  0  0  0  0  0  0
   -1.0813    0.2136   -2.0605 H   0  0  0  0  0  0  0  0  0  0  0  0
   -0.0355    0.2028    0.1296 H   0  0  0  0  0  0  0  0  0  0  0  0
    2.7199    2.5171    1.1166 H   0  0  0  0  0  0  0  0  0  0  0  0
    2.6106   -0.6587   -0.1542 H   0  0  0  0  0  0  0  0  0  0  0  0
    2.6824   -3.0973   -0.2698 H   0  0  0  0  0  0  0  0  0  0  0  0
    1.9935   -4.4710    1.6673 H   0  0  0  0  0  0  0  0  0  0  0  0
    1.2348   -3.3868    3.7525 H   0  0  0  0  0  0  0  0  0  0  0  0
    0.3455    0.4125    6.3604 H   0  0  0  0  0  0  0  0  0  0  0  0
    0.2298    2.8592    6.6794 H   0  0  0  0  0  0  0  0  0  0  0  0
    0.8265    4.3856    4.8276 H   0  0  0  0  0  0  0  0  0  0  0  0
    1.5374    3.5006    2.6639 H   0  0  0  0  0  0  0  0  0  0  0  0
    2.8399    3.1295   -1.2124 H   0  0  0  0  0  0  0  0  0  0  0  0
    1.7789    3.1442   -3.4263 H   0  0  0  0  0  0  0  0  0  0  0  0
  1 29  1  0  0  0  0
  1 30  1  0  0  0  0
  1 31  1  0  0  0  0
  2  1  1  0  0  0  0
  2 32  1  0  0  0  0
  2 33  1  0  0  0  0
  3  2  1  0  0  0  0
  3 34  1  0  0  0  0
  3 35  1  0  0  0  0
  4  3  1  0  0  0  0
  4 36  1  0  0  0  0
  4 37  1  0  0  0  0
  5  4  1  0  0  0  0
  5 38  1  0  0  0  0
  5 39  1  0  0  0  0
  6  5  1  0  0  0  0
  6 40  1  0  0  0  0
  6 41  1  0  0  0  0
  7  6  1  0  0  0  0
  7 42  1  0  0  0  0
  8  7  1  0  0  0  0
  9  8  2  0  0  0  0
  9 43  1  0  0  0  0
 10  9  1  0  0  0  0
 10 44  1  0  0  0  0
 11 10  2  0  0  0  0
 12 11  1  0  0  0  0
 12 45  1  0  0  0  0
 13 12  1  0  0  0  0
 14 13  2  0  0  0  0
 15 14  1  0  0  0  0
 15 46  1  0  0  0  0
 16 15  2  0  0  0  0
 16 47  1  0  0  0  0
 17 16  1  0  0  0  0
 17 48  1  0  0  0  0
 18 17  2  0  0  0  0
 18 49  1  0  0  0  0
 19 18  1  0  0  0  0
 19 14  1  0  0  0  0
 20 19  2  0  0  0  0
 21 20  1  0  0  0  0
 22 21  2  0  0  0  0
 22 50  1  0  0  0  0
 23 22  1  0  0  0  0
 23 51  1  0  0  0  0
 24 23  2  0  0  0  0
 24 52  1  0  0  0  0
 25 24  1  0  0  0  0
 25 53  1  0  0  0  0
 26 25  2  0  0  0  0
 26 13  1  0  0  0  0
 26 21  1  0  0  0  0
 27 11  1  0  0  0  0
 27 54  1  0  0  0  0
 28 27  2  0  0  0  0
 28  8  1  0  0  0  0
 28 55  1  0  0  0  0
M  END
>  <MOL Chiral Flag>
0

>  <energy>
84.779935815640684

$$$$
