>666.sdf
 OpenBabel10062216573D

 31 33  0  0  0  0  0  0  0  0999 V2000
   -3.6545    1.9613    1.2369 O   0  0  0  0  0  0  0  0  0  0  0  0
   -3.4174    0.6057    0.9666 C   0  0  0  0  0  0  0  0  0  0  0  0
   -3.4179    0.3588   -0.5566 C   0  0  1  0  0  0  0  0  0  0  0  0
   -2.4167    1.1597   -1.1601 O   0  0  0  0  0  0  0  0  0  0  0  0
   -1.3725    0.2900   -1.5604 C   0  0  2  0  0  0  0  0  0  0  0  0
   -1.6108   -1.0534   -0.8763 C   0  0  2  0  0  0  0  0  0  0  0  0
   -0.9850   -2.1171   -1.5478 O   0  0  0  0  0  0  0  0  0  0  0  0
   -3.1196   -1.0963   -0.9402 C   0  0  2  0  0  0  0  0  0  0  0  0
   -3.5482   -1.3026   -2.2659 O   0  0  0  0  0  0  0  0  0  0  0  0
   -0.0822    0.8744   -1.1937 N   0  0  0  0  0  0  0  0  0  0  0  0
    0.2485    1.1898    0.0568 N   0  0  0  0  0  0  0  0  0  0  0  0
    1.4751    1.7683    0.0409 C   0  0  0  0  0  0  0  0  0  0  0  0
    1.9110    1.8145   -1.2666 C   0  0  0  0  0  0  0  0  0  0  0  0
    0.9266    1.2469   -2.0043 C   0  0  0  0  0  0  0  0  0  0  0  0
    1.0130    1.1271   -3.3551 N   0  0  0  0  0  0  0  0  0  0  0  0
    2.1381    1.6007   -3.9757 C   0  0  0  0  0  0  0  0  0  0  0  0
    3.1440    2.1834   -3.2442 N   0  0  0  0  0  0  0  0  0  0  0  0
    3.0505    2.3007   -1.8868 C   0  0  0  0  0  0  0  0  0  0  0  0
    3.9429    2.8269   -1.2469 O   0  0  0  0  0  0  0  0  0  0  0  0
   -2.7704    2.4156    1.2144 H   0  0  0  0  0  0  0  0  0  0  0  0
   -4.2272    0.0087    1.4360 H   0  0  0  0  0  0  0  0  0  0  0  0
   -2.4725    0.2903    1.4595 H   0  0  0  0  0  0  0  0  0  0  0  0
   -4.4246    0.6433   -0.9352 H   0  0  0  0  0  0  0  0  0  0  0  0
   -1.4642    0.1583   -2.6597 H   0  0  0  0  0  0  0  0  0  0  0  0
   -1.2867   -0.9996    0.1888 H   0  0  0  0  0  0  0  0  0  0  0  0
   -0.6098   -2.7224   -0.8562 H   0  0  0  0  0  0  0  0  0  0  0  0
   -3.6178   -1.8411   -0.2781 H   0  0  0  0  0  0  0  0  0  0  0  0
   -3.4282   -2.2684   -2.4604 H   0  0  0  0  0  0  0  0  0  0  0  0
    1.9942    2.1351    0.9162 H   0  0  0  0  0  0  0  0  0  0  0  0
    0.2538    0.6889   -3.9194 H   0  0  0  0  0  0  0  0  0  0  0  0
    2.2356    1.5198   -5.0502 H   0  0  0  0  0  0  0  0  0  0  0  0
  1 20  1  0  0  0  0
  2  1  1  0  0  0  0
  2 21  1  0  0  0  0
  2 22  1  0  0  0  0
  3  2  1  0  0  0  0
  3 23  1  6  0  0  0
  4  3  1  0  0  0  0
  5  4  1  0  0  0  0
  5 24  1  6  0  0  0
  6  5  1  0  0  0  0
  6 25  1  1  0  0  0
  7  6  1  0  0  0  0
  7 26  1  0  0  0  0
  8  6  1  0  0  0  0
  8  3  1  0  0  0  0
  8 27  1  1  0  0  0
  9  8  1  0  0  0  0
  9 28  1  0  0  0  0
 10  5  1  0  0  0  0
 11 10  1  0  0  0  0
 12 11  2  0  0  0  0
 12 29  1  0  0  0  0
 13 12  1  0  0  0  0
 14 13  2  0  0  0  0
 14 10  1  0  0  0  0
 15 14  1  0  0  0  0
 15 30  1  0  0  0  0
 16 15  1  0  0  0  0
 16 31  1  0  0  0  0
 17 16  2  0  0  0  0
 18 17  1  0  0  0  0
 18 13  1  0  0  0  0
 19 18  2  0  0  0  0
M  END
>  <MOL Chiral Flag>
0

>  <energy>
103.3392004069603

$$$$
