>669.sdf
 OpenBabel10062216583D

 32 34  0  0  0  0  0  0  0  0999 V2000
   -4.8705    0.0960    0.7415 C   0  0  0  0  0  0  0  0  0  0  0  0
   -3.3883    0.2869    0.8133 C   0  0  0  0  0  0  0  0  0  0  0  0
   -2.5241   -0.4188   -0.0119 C   0  0  0  0  0  0  0  0  0  0  0  0
   -1.1878   -0.2284    0.0728 C   0  0  0  0  0  0  0  0  0  0  0  0
   -0.6377    0.6308    0.9614 N   0  0  0  0  0  0  0  0  0  0  0  0
   -1.4752    1.3347    1.7849 C   0  0  0  0  0  0  0  0  0  0  0  0
   -2.8365    1.1624    1.7068 N   0  0  0  0  0  0  0  0  0  0  0  0
   -0.5667   -1.0335   -0.8075 N   0  0  0  0  0  0  0  0  0  0  0  0
   -1.5765   -1.7131   -1.4132 C   0  0  0  0  0  0  0  0  0  0  0  0
   -2.7989   -1.3460   -0.9454 N   0  0  0  0  0  0  0  0  0  0  0  0
    0.8629   -1.2295   -1.0982 C   0  0  1  0  0  0  0  0  0  0  0  0
    1.4961   -0.0660   -1.8623 C   0  0  0  0  0  0  0  0  0  0  0  0
    2.1306    0.7130   -0.7543 C   0  0  1  0  0  0  0  0  0  0  0  0
    2.6331   -0.4564    0.0919 C   0  0  2  0  0  0  0  0  0  0  0  0
    1.5934   -1.4191    0.1048 O   0  0  0  0  0  0  0  0  0  0  0  0
    3.0190   -0.0381    1.5159 C   0  0  0  0  0  0  0  0  0  0  0  0
    4.1520    0.7892    1.5053 O   0  0  0  0  0  0  0  0  0  0  0  0
    3.1716    1.5424   -1.1976 O   0  0  0  0  0  0  0  0  0  0  0  0
   -5.3838    0.7405    1.4859 H   0  0  0  0  0  0  0  0  0  0  0  0
   -5.1242   -0.9645    0.9521 H   0  0  0  0  0  0  0  0  0  0  0  0
   -5.2340    0.3631   -0.2732 H   0  0  0  0  0  0  0  0  0  0  0  0
   -1.0628    2.0278    2.5048 H   0  0  0  0  0  0  0  0  0  0  0  0
   -1.4311   -2.4591   -2.1841 H   0  0  0  0  0  0  0  0  0  0  0  0
    0.9552   -2.1224   -1.7568 H   0  0  0  0  0  0  0  0  0  0  0  0
    0.8269    0.4876   -2.5549 H   0  0  0  0  0  0  0  0  0  0  0  0
    2.3338   -0.4872   -2.4682 H   0  0  0  0  0  0  0  0  0  0  0  0
    1.3722    1.2974   -0.1981 H   0  0  0  0  0  0  0  0  0  0  0  0
    3.5172   -0.9369   -0.3903 H   0  0  0  0  0  0  0  0  0  0  0  0
    2.1689    0.4567    2.0395 H   0  0  0  0  0  0  0  0  0  0  0  0
    3.2703   -0.9468    2.1022 H   0  0  0  0  0  0  0  0  0  0  0  0
    3.8387    1.7112    1.3176 H   0  0  0  0  0  0  0  0  0  0  0  0
    2.7559    2.2263   -1.7848 H   0  0  0  0  0  0  0  0  0  0  0  0
  1 19  1  0  0  0  0
  1 20  1  0  0  0  0
  1 21  1  0  0  0  0
  2  1  1  0  0  0  0
  3  2  2  0  0  0  0
  4  3  1  0  0  0  0
  5  4  2  0  0  0  0
  6  5  1  0  0  0  0
  6 22  1  0  0  0  0
  7  6  2  0  0  0  0
  7  2  1  0  0  0  0
  8  4  1  0  0  0  0
  9  8  1  0  0  0  0
  9 23  1  0  0  0  0
 10  9  2  0  0  0  0
 10  3  1  0  0  0  0
 11  8  1  0  0  0  0
 11 24  1  6  0  0  0
 12 11  1  0  0  0  0
 12 25  1  0  0  0  0
 12 26  1  0  0  0  0
 13 12  1  0  0  0  0
 13 27  1  1  0  0  0
 14 13  1  0  0  0  0
 14 28  1  6  0  0  0
 15 14  1  0  0  0  0
 15 11  1  0  0  0  0
 16 14  1  0  0  0  0
 16 29  1  0  0  0  0
 16 30  1  0  0  0  0
 17 16  1  0  0  0  0
 17 31  1  0  0  0  0
 18 13  1  0  0  0  0
 18 32  1  0  0  0  0
M  END
>  <MOL Chiral Flag>
0

>  <energy>
71.448590952248892

$$$$
