>68.sdf
 OpenBabel10052218183D

 53 57  0  0  0  0  0  0  0  0999 V2000
   -0.2175   -5.8131    0.3399 C   0  0  0  0  0  0  0  0  0  0  0  0
   -1.5517   -5.0954    0.4887 C   0  0  0  0  0  0  0  0  0  0  0  0
   -1.5816   -3.6092    0.4241 N   0  0  0  0  0  0  0  0  0  0  0  0
   -0.5676   -2.6743    0.2878 C   0  0  0  0  0  0  0  0  0  0  0  0
   -1.2563   -1.1782    0.2212 S   0  0  0  0  0  0  0  0  0  0  0  0
   -2.8292   -1.5719    0.3883 C   0  0  0  0  0  0  0  0  0  0  0  0
   -3.9196   -0.7694    0.3267 C   0  0  0  0  0  0  0  0  0  0  0  0
   -3.9831    0.7019    0.0018 C   0  0  0  0  0  0  0  0  0  0  0  0
   -3.0854    1.7118    0.1978 C   0  0  0  0  0  0  0  0  0  0  0  0
   -1.6664    1.6465    1.0719 S   0  0  0  0  0  0  0  0  0  0  0  0
   -1.1471    3.1725    0.7883 C   0  0  0  0  0  0  0  0  0  0  0  0
   -2.1153    3.7895    0.0033 C   0  0  0  0  0  0  0  0  0  0  0  0
   -1.9130    5.1143   -0.4171 C   0  0  0  0  0  0  0  0  0  0  0  0
   -0.7317    5.7793   -0.0349 C   0  0  0  0  0  0  0  0  0  0  0  0
   -0.5139    7.0528   -0.4453 F   0  0  0  0  0  0  0  0  0  0  0  0
    0.2306    5.1279    0.7654 C   0  0  0  0  0  0  0  0  0  0  0  0
    0.0223    3.8068    1.1870 C   0  0  0  0  0  0  0  0  0  0  0  0
   -3.2112    2.9940   -0.3147 N   0  0  0  0  0  0  0  0  0  0  0  0
   -4.3050    3.5068   -1.1578 C   0  0  0  0  0  0  0  0  0  0  0  0
   -2.8391   -2.9767    0.5067 C   0  0  0  0  0  0  0  0  0  0  0  0
   -3.8745   -3.6107    0.6253 O   0  0  0  0  0  0  0  0  0  0  0  0
    0.7730   -2.8610    0.1657 C   0  0  0  0  0  0  0  0  0  0  0  0
    1.7631   -1.7338    0.1439 C   0  0  0  0  0  0  0  0  0  0  0  0
    2.9826   -1.7431   -0.4902 N   0  3  0  0  0  0  0  0  0  0  0  0
    3.4771   -2.8249   -1.3474 C   0  0  0  0  0  0  0  0  0  0  0  0
    3.6998   -0.5759   -0.2545 C   0  0  0  0  0  0  0  0  0  0  0  0
    4.9673   -0.2728   -0.7727 C   0  0  0  0  0  0  0  0  0  0  0  0
    5.5676    0.9558   -0.4310 C   0  0  0  0  0  0  0  0  0  0  0  0
    6.7916    1.2664   -0.9236 F   0  0  0  0  0  0  0  0  0  0  0  0
    4.9064    1.8657    0.4222 C   0  0  0  0  0  0  0  0  0  0  0  0
    3.6372    1.5613    0.9338 C   0  0  0  0  0  0  0  0  0  0  0  0
    3.0654    0.3479    0.5757 C   0  0  0  0  0  0  0  0  0  0  0  0
    1.6156   -0.2962    0.9879 S   0  0  0  0  0  0  0  0  0  0  0  0
    0.4653   -5.5554    1.1757 H   0  0  0  0  0  0  0  0  0  0  0  0
   -0.3930   -6.9088    0.3907 H   0  0  0  0  0  0  0  0  0  0  0  0
    0.2258   -5.6065   -0.6573 H   0  0  0  0  0  0  0  0  0  0  0  0
   -2.2030   -5.4843   -0.3250 H   0  0  0  0  0  0  0  0  0  0  0  0
   -1.9927   -5.4132    1.4586 H   0  0  0  0  0  0  0  0  0  0  0  0
   -4.8844   -1.2678    0.3616 H   0  0  0  0  0  0  0  0  0  0  0  0
   -4.9036    0.9441   -0.4990 H   0  0  0  0  0  0  0  0  0  0  0  0
   -2.6377    5.6242   -1.0370 H   0  0  0  0  0  0  0  0  0  0  0  0
    1.1369    5.6464    1.0507 H   0  0  0  0  0  0  0  0  0  0  0  0
    0.7564    3.2934    1.7943 H   0  0  0  0  0  0  0  0  0  0  0  0
   -4.7736    4.3836   -0.6645 H   0  0  0  0  0  0  0  0  0  0  0  0
   -3.8949    3.8198   -2.1416 H   0  0  0  0  0  0  0  0  0  0  0  0
   -5.1070    2.7826   -1.3657 H   0  0  0  0  0  0  0  0  0  0  0  0
    1.1963   -3.8349    0.0983 H   0  0  0  0  0  0  0  0  0  0  0  0
    4.4238   -3.2300   -0.9350 H   0  0  0  0  0  0  0  0  0  0  0  0
    3.6613   -2.4272   -2.3683 H   0  0  0  0  0  0  0  0  0  0  0  0
    2.7507   -3.6535   -1.4462 H   0  0  0  0  0  0  0  0  0  0  0  0
    5.4845   -0.9627   -1.4252 H   0  0  0  0  0  0  0  0  0  0  0  0
    5.3785    2.8044    0.6826 H   0  0  0  0  0  0  0  0  0  0  0  0
    3.1200    2.2512    1.5883 H   0  0  0  0  0  0  0  0  0  0  0  0
  1 34  1  0  0  0  0
  1 35  1  0  0  0  0
  1 36  1  0  0  0  0
  2  1  1  0  0  0  0
  2 37  1  0  0  0  0
  2 38  1  0  0  0  0
  3  2  1  0  0  0  0
  4  3  1  0  0  0  0
  5  4  1  0  0  0  0
  6  5  1  0  0  0  0
  7  6  2  0  0  0  0
  7 39  1  0  0  0  0
  8  7  1  0  0  0  0
  8 40  1  0  0  0  0
  9  8  2  0  0  0  0
 10  9  1  0  0  0  0
 11 10  1  0  0  0  0
 12 11  2  0  0  0  0
 13 12  1  0  0  0  0
 13 41  1  0  0  0  0
 14 13  2  0  0  0  0
 15 14  1  0  0  0  0
 16 14  1  0  0  0  0
 16 42  1  0  0  0  0
 17 16  2  0  0  0  0
 17 11  1  0  0  0  0
 17 43  1  0  0  0  0
 18 12  1  0  0  0  0
 18  9  1  0  0  0  0
 19 18  1  0  0  0  0
 19 44  1  0  0  0  0
 19 45  1  0  0  0  0
 19 46  1  0  0  0  0
 20  6  1  0  0  0  0
 20  3  1  0  0  0  0
 21 20  2  0  0  0  0
 22  4  2  0  0  0  0
 22 47  1  0  0  0  0
 23 22  1  0  0  0  0
 24 23  2  0  0  0  0
 25 24  1  0  0  0  0
 25 48  1  0  0  0  0
 25 49  1  0  0  0  0
 25 50  1  0  0  0  0
 26 24  1  0  0  0  0
 27 26  2  0  0  0  0
 27 51  1  0  0  0  0
 28 27  1  0  0  0  0
 29 28  1  0  0  0  0
 30 28  2  0  0  0  0
 30 52  1  0  0  0  0
 31 30  1  0  0  0  0
 31 53  1  0  0  0  0
 32 31  2  0  0  0  0
 32 26  1  0  0  0  0
 33 32  1  0  0  0  0
 33 23  1  0  0  0  0
M  CHG  1  24   1
M  END
>  <MOL Chiral Flag>
0

>  <energy>
72.72266209786099

$$$$
