>69.sdf
 OpenBabel10052218193D

 49 52  0  0  0  0  0  0  0  0999 V2000
   -4.0608    1.8029   -1.4272 C   0  0  0  0  0  0  0  0  0  0  0  0
   -5.0084    0.9210   -0.7333 N   0  0  0  0  0  0  0  0  0  0  0  0
   -4.7832   -0.2317   -0.0365 C   0  0  0  0  0  0  0  0  0  0  0  0
   -5.9180   -0.7085    0.5235 N   0  0  0  0  0  0  0  0  0  0  0  0
   -6.8909    0.1450    0.1546 C   0  0  0  0  0  0  0  0  0  0  0  0
   -6.3373    1.1460   -0.6105 C   0  0  0  0  0  0  0  0  0  0  0  0
   -7.0565    2.2519   -1.1560 N   0  0  0  0  0  0  0  0  0  0  0  0
   -8.2312    2.3486   -0.9651 O   0  0  0  0  0  0  0  0  0  0  0  0
   -6.4977    3.0910   -1.7935 O   0  0  0  0  0  0  0  0  0  0  0  0
   -3.4899   -0.9228    0.1655 C   0  0  0  0  0  0  0  0  0  0  0  0
   -3.2640   -1.7923    1.1928 N   0  0  0  0  0  0  0  0  0  0  0  0
   -1.9910   -2.2372    1.2648 N   0  0  0  0  0  0  0  0  0  0  0  0
   -1.2008   -1.7759    0.2590 C   0  0  0  0  0  0  0  0  0  0  0  0
   -2.0915   -0.7736   -0.6954 S   0  0  0  0  0  0  0  0  0  0  0  0
    0.2137   -1.9310    0.1922 N   0  0  0  0  0  0  0  0  0  0  0  0
    0.9487   -1.5708   -1.0044 C   0  0  0  0  0  0  0  0  0  0  0  0
    1.7088   -0.2760   -0.7369 C   0  0  0  0  0  0  0  0  0  0  0  0
    2.5869   -0.3852    0.5318 C   0  0  0  0  0  0  0  0  0  0  0  0
    1.7404   -0.8993    1.7335 C   0  0  0  0  0  0  0  0  0  0  0  0
    0.9885   -2.1956    1.3893 C   0  0  0  0  0  0  0  0  0  0  0  0
    3.3326    0.8725    0.8553 N   0  0  0  0  0  0  0  0  0  0  0  0
    4.2847    1.3547   -0.1744 C   0  0  0  0  0  0  0  0  0  0  0  0
    3.6593    2.3977   -1.1307 C   0  0  0  0  0  0  0  0  0  0  0  0
    3.0463    3.5516   -0.3405 C   0  0  0  0  0  0  0  0  0  0  0  0
    2.0074    3.0069    0.6400 C   0  0  0  0  0  0  0  0  0  0  0  0
    2.6727    1.9913    1.5806 C   0  0  0  0  0  0  0  0  0  0  0  0
   -4.0978    2.8143   -0.9687 H   0  0  0  0  0  0  0  0  0  0  0  0
   -4.3210    1.8721   -2.5032 H   0  0  0  0  0  0  0  0  0  0  0  0
   -3.0164    1.4829   -1.3473 H   0  0  0  0  0  0  0  0  0  0  0  0
   -7.9296    0.0450    0.4391 H   0  0  0  0  0  0  0  0  0  0  0  0
    1.6506   -2.3956   -1.2597 H   0  0  0  0  0  0  0  0  0  0  0  0
    0.2822   -1.4245   -1.8807 H   0  0  0  0  0  0  0  0  0  0  0  0
    0.9546    0.5209   -0.6059 H   0  0  0  0  0  0  0  0  0  0  0  0
    2.3258   -0.0789   -1.6332 H   0  0  0  0  0  0  0  0  0  0  0  0
    3.3437   -1.1769    0.3312 H   0  0  0  0  0  0  0  0  0  0  0  0
    0.9490   -0.1624    1.9809 H   0  0  0  0  0  0  0  0  0  0  0  0
    2.3830   -1.0550    2.6264 H   0  0  0  0  0  0  0  0  0  0  0  0
    0.3435   -2.4678    2.2528 H   0  0  0  0  0  0  0  0  0  0  0  0
    1.6922   -3.0363    1.2055 H   0  0  0  0  0  0  0  0  0  0  0  0
    4.7097    0.5069   -0.7538 H   0  0  0  0  0  0  0  0  0  0  0  0
    5.1352    1.8441    0.3486 H   0  0  0  0  0  0  0  0  0  0  0  0
    4.4388    2.7862   -1.8201 H   0  0  0  0  0  0  0  0  0  0  0  0
    2.8652    1.9584   -1.7587 H   0  0  0  0  0  0  0  0  0  0  0  0
    3.8450    4.0824    0.2222 H   0  0  0  0  0  0  0  0  0  0  0  0
    2.5690    4.2765   -1.0354 H   0  0  0  0  0  0  0  0  0  0  0  0
    1.5877    3.8463    1.2349 H   0  0  0  0  0  0  0  0  0  0  0  0
    1.1670    2.5450    0.0894 H   0  0  0  0  0  0  0  0  0  0  0  0
    3.4560    2.5328    2.1552 H   0  0  0  0  0  0  0  0  0  0  0  0
    1.9541    1.6470    2.3433 H   0  0  0  0  0  0  0  0  0  0  0  0
  1 27  1  0  0  0  0
  1 28  1  0  0  0  0
  1 29  1  0  0  0  0
  2  1  1  0  0  0  0
  3  2  1  0  0  0  0
  4  3  2  0  0  0  0
  5  4  1  0  0  0  0
  5 30  1  0  0  0  0
  6  5  2  0  0  0  0
  6  2  1  0  0  0  0
  7  6  1  0  0  0  0
  8  7  2  0  0  0  0
  9  7  2  0  0  0  0
 10  3  1  0  0  0  0
 11 10  2  0  0  0  0
 12 11  1  0  0  0  0
 13 12  2  0  0  0  0
 14 13  1  0  0  0  0
 14 10  1  0  0  0  0
 15 13  1  0  0  0  0
 16 15  1  0  0  0  0
 16 31  1  0  0  0  0
 16 32  1  0  0  0  0
 17 16  1  0  0  0  0
 17 33  1  0  0  0  0
 17 34  1  0  0  0  0
 18 17  1  0  0  0  0
 18 35  1  0  0  0  0
 19 18  1  0  0  0  0
 19 36  1  0  0  0  0
 19 37  1  0  0  0  0
 20 19  1  0  0  0  0
 20 15  1  0  0  0  0
 20 38  1  0  0  0  0
 20 39  1  0  0  0  0
 21 18  1  0  0  0  0
 22 21  1  0  0  0  0
 22 40  1  0  0  0  0
 22 41  1  0  0  0  0
 23 22  1  0  0  0  0
 23 42  1  0  0  0  0
 23 43  1  0  0  0  0
 24 23  1  0  0  0  0
 24 44  1  0  0  0  0
 24 45  1  0  0  0  0
 25 24  1  0  0  0  0
 25 46  1  0  0  0  0
 25 47  1  0  0  0  0
 26 25  1  0  0  0  0
 26 21  1  0  0  0  0
 26 48  1  0  0  0  0
 26 49  1  0  0  0  0
M  END
>  <MOL Chiral Flag>
0

>  <energy>
32.778883362313977

$$$$
