>70.sdf
 OpenBabel10042212493D

 18 19  0  0  0  0  0  0  0  0999 V2000
   -1.1557   -1.0765    1.7386 H   0  0  0  0  0  0  0  0  0  0  0  0
   -0.9128   -0.5333    0.9197 N   0  0  0  0  0  0  0  0  0  0  0  0
    0.3498   -0.3275    0.4271 C   0  0  0  0  0  0  0  0  0  0  0  0
    0.1582    0.4754   -0.6897 C   0  0  0  0  0  0  0  0  0  0  0  0
    1.2657    0.8830   -1.4452 C   0  0  0  0  0  0  0  0  0  0  0  0
    2.5426    0.4594   -1.0481 C   0  0  0  0  0  0  0  0  0  0  0  0
    3.8830    0.9808   -2.0111 Cl  0  0  0  0  0  0  0  0  0  0  0  0
    2.7097   -0.3528    0.0838 C   0  0  0  0  0  0  0  0  0  0  0  0
    4.2686   -0.8969    0.6032 Cl  0  0  0  0  0  0  0  0  0  0  0  0
    1.6077   -0.7634    0.8505 C   0  0  0  0  0  0  0  0  0  0  0  0
   -1.1734    0.7466   -0.8717 N   0  0  0  0  0  0  0  0  0  0  0  0
   -1.8101    0.1257    0.1099 C   0  0  0  0  0  0  0  0  0  0  0  0
   -3.2744    0.0641    0.3960 C   0  0  0  0  0  0  0  0  0  0  0  0
   -3.8822    1.2725    0.3136 F   0  0  0  0  0  0  0  0  0  0  0  0
   -3.9249   -0.7787   -0.4450 F   0  0  0  0  0  0  0  0  0  0  0  0
   -3.5015   -0.4020    1.6564 F   0  0  0  0  0  0  0  0  0  0  0  0
    1.1212    1.5126   -2.3164 H   0  0  0  0  0  0  0  0  0  0  0  0
    1.7287   -1.3892    1.7283 H   0  0  0  0  0  0  0  0  0  0  0  0
  2  1  1  0  0  0  0
  3  2  1  0  0  0  0
  4  3  2  0  0  0  0
  5  4  1  0  0  0  0
  5 17  1  0  0  0  0
  6  5  2  0  0  0  0
  7  6  1  0  0  0  0
  8  6  1  0  0  0  0
  9  8  1  0  0  0  0
 10  8  2  0  0  0  0
 10  3  1  0  0  0  0
 10 18  1  0  0  0  0
 11  4  1  0  0  0  0
 12 11  2  0  0  0  0
 12  2  1  0  0  0  0
 13 12  1  0  0  0  0
 14 13  1  0  0  0  0
 15 13  1  0  0  0  0
 16 13  1  0  0  0  0
M  END
>  <energy>
47.414939445428772

$$$$
