>72.sdf
 OpenBabel10052218193D

 57 61  0  0  0  0  0  0  0  0999 V2000
    3.8351    1.7334   -3.3773 F   0  0  0  0  0  0  0  0  0  0  0  0
    4.0678    1.8611   -2.0476 C   0  0  0  0  0  0  0  0  0  0  0  0
    3.4381    0.9878   -1.1436 C   0  0  0  0  0  0  0  0  0  0  0  0
    3.6790    1.1328    0.2346 C   0  0  0  0  0  0  0  0  0  0  0  0
    4.5176    2.1598    0.6674 C   0  0  0  0  0  0  0  0  0  0  0  0
    4.5481    2.1332    2.3171 S   0  0  0  0  0  0  0  0  0  0  0  0
    3.5125    0.8581    2.5826 C   0  0  0  0  0  0  0  0  0  0  0  0
    3.1157    0.3702    1.3203 C   0  0  0  0  0  0  0  0  0  0  0  0
    2.1859   -0.7813    1.1741 C   0  0  0  0  0  0  0  0  0  0  0  0
    1.1244   -0.9416    2.0818 C   0  0  0  0  0  0  0  0  0  0  0  0
    0.1909   -1.9650    1.9032 C   0  0  0  0  0  0  0  0  0  0  0  0
    0.3215   -2.8654    0.8337 C   0  0  0  0  0  0  0  0  0  0  0  0
   -0.7535   -3.9019    0.5729 C   0  0  0  0  0  0  0  0  0  0  0  0
   -1.3607   -3.7590   -0.7731 N   0  3  0  0  0  0  0  0  0  0  0  0
   -1.6739   -2.3575   -1.1087 C   0  0  0  0  0  0  0  0  0  0  0  0
   -2.4285   -2.2152   -2.4417 C   0  0  0  0  0  0  0  0  0  0  0  0
   -2.4716   -0.7352   -2.8636 C   0  0  0  0  0  0  0  0  0  0  0  0
   -3.0351    0.0651   -1.7868 N   0  0  0  0  0  0  0  0  0  0  0  0
   -2.2749    1.0121   -1.0072 C   0  0  0  0  0  0  0  0  0  0  0  0
   -1.0884    1.5899   -1.5158 C   0  0  0  0  0  0  0  0  0  0  0  0
   -0.3513    2.4865   -0.7463 C   0  0  0  0  0  0  0  0  0  0  0  0
   -0.7591    2.8149    0.5022 N   0  0  0  0  0  0  0  0  0  0  0  0
   -1.8859    2.2948    1.0470 C   0  0  0  0  0  0  0  0  0  0  0  0
   -2.6867    1.3782    0.3117 C   0  0  0  0  0  0  0  0  0  0  0  0
   -3.8418    0.8485    0.9353 C   0  0  0  0  0  0  0  0  0  0  0  0
   -4.1836    1.2268    2.2362 C   0  0  0  0  0  0  0  0  0  0  0  0
   -3.3899    2.1306    2.9411 C   0  0  0  0  0  0  0  0  0  0  0  0
   -3.8278    2.5909    4.5760 Cl  0  0  0  0  0  0  0  0  0  0  0  0
   -2.2453    2.6623    2.3491 C   0  0  0  0  0  0  0  0  0  0  0  0
    1.4197   -2.7533   -0.0296 C   0  0  0  0  0  0  0  0  0  0  0  0
    2.3368   -1.7143    0.1316 C   0  0  0  0  0  0  0  0  0  0  0  0
    5.1545    3.0321   -0.2081 C   0  0  0  0  0  0  0  0  0  0  0  0
    4.9270    2.8749   -1.5823 C   0  0  0  0  0  0  0  0  0  0  0  0
    2.7635    0.2425   -1.5314 H   0  0  0  0  0  0  0  0  0  0  0  0
    3.2246    0.4646    3.5484 H   0  0  0  0  0  0  0  0  0  0  0  0
    0.9856   -0.2420    2.8964 H   0  0  0  0  0  0  0  0  0  0  0  0
   -0.6497   -2.0366    2.5823 H   0  0  0  0  0  0  0  0  0  0  0  0
   -1.5545   -3.8049    1.3405 H   0  0  0  0  0  0  0  0  0  0  0  0
   -0.3241   -4.9222    0.6758 H   0  0  0  0  0  0  0  0  0  0  0  0
   -2.2326   -4.3375   -0.8033 H   0  0  0  0  0  0  0  0  0  0  0  0
   -0.6966   -4.1299   -1.4922 H   0  0  0  0  0  0  0  0  0  0  0  0
   -0.7264   -1.7872   -1.2160 H   0  0  0  0  0  0  0  0  0  0  0  0
   -2.2741   -1.8947   -0.2931 H   0  0  0  0  0  0  0  0  0  0  0  0
   -3.4535   -2.6283   -2.3265 H   0  0  0  0  0  0  0  0  0  0  0  0
   -1.9049   -2.7808   -3.2432 H   0  0  0  0  0  0  0  0  0  0  0  0
   -3.0730   -0.6090   -3.7885 H   0  0  0  0  0  0  0  0  0  0  0  0
   -1.4321   -0.4581   -3.1052 H   0  0  0  0  0  0  0  0  0  0  0  0
   -3.9913   -0.1794   -1.5102 H   0  0  0  0  0  0  0  0  0  0  0  0
   -0.7223    1.3791   -2.5065 H   0  0  0  0  0  0  0  0  0  0  0  0
    0.5526    2.9263   -1.1466 H   0  0  0  0  0  0  0  0  0  0  0  0
   -4.4899    0.1396    0.4512 H   0  0  0  0  0  0  0  0  0  0  0  0
   -5.0692    0.8097    2.6985 H   0  0  0  0  0  0  0  0  0  0  0  0
   -1.6279    3.3593    2.9033 H   0  0  0  0  0  0  0  0  0  0  0  0
    1.5409   -3.4449   -0.8534 H   0  0  0  0  0  0  0  0  0  0  0  0
    3.1658   -1.6478   -0.5575 H   0  0  0  0  0  0  0  0  0  0  0  0
    5.7977    3.8205    0.1602 H   0  0  0  0  0  0  0  0  0  0  0  0
    5.4017    3.5447   -2.2874 H   0  0  0  0  0  0  0  0  0  0  0  0
  2  1  1  0  0  0  0
  3  2  2  0  0  0  0
  3 34  1  0  0  0  0
  4  3  1  0  0  0  0
  5  4  2  0  0  0  0
  6  5  1  0  0  0  0
  7  6  1  0  0  0  0
  7 35  1  0  0  0  0
  8  7  2  0  0  0  0
  8  4  1  0  0  0  0
  9  8  1  0  0  0  0
 10  9  2  0  0  0  0
 10 36  1  0  0  0  0
 11 10  1  0  0  0  0
 11 37  1  0  0  0  0
 12 11  2  0  0  0  0
 13 12  1  0  0  0  0
 13 38  1  0  0  0  0
 13 39  1  0  0  0  0
 14 13  1  0  0  0  0
 14 40  1  0  0  0  0
 14 41  1  0  0  0  0
 15 14  1  0  0  0  0
 15 42  1  0  0  0  0
 15 43  1  0  0  0  0
 16 15  1  0  0  0  0
 16 44  1  0  0  0  0
 16 45  1  0  0  0  0
 17 16  1  0  0  0  0
 17 46  1  0  0  0  0
 17 47  1  0  0  0  0
 18 17  1  0  0  0  0
 18 48  1  0  0  0  0
 19 18  1  0  0  0  0
 20 19  2  0  0  0  0
 20 49  1  0  0  0  0
 21 20  1  0  0  0  0
 21 50  1  0  0  0  0
 22 21  2  0  0  0  0
 23 22  1  0  0  0  0
 24 23  2  0  0  0  0
 24 19  1  0  0  0  0
 25 24  1  0  0  0  0
 25 51  1  0  0  0  0
 26 25  2  0  0  0  0
 26 52  1  0  0  0  0
 27 26  1  0  0  0  0
 28 27  1  0  0  0  0
 29 27  2  0  0  0  0
 29 23  1  0  0  0  0
 29 53  1  0  0  0  0
 30 12  1  0  0  0  0
 30 54  1  0  0  0  0
 31 30  2  0  0  0  0
 31  9  1  0  0  0  0
 31 55  1  0  0  0  0
 32  5  1  0  0  0  0
 32 56  1  0  0  0  0
 33 32  2  0  0  0  0
 33  2  1  0  0  0  0
 33 57  1  0  0  0  0
M  CHG  1  14   1
M  END
>  <MOL Chiral Flag>
0

>  <energy>
69.111819784401987

$$$$
