>73.sdf
 OpenBabel10052218203D

 40 43  0  0  0  0  0  0  0  0999 V2000
    0.1587   -5.1091    1.9498 C   0  0  0  0  0  0  0  0  0  0  0  0
   -0.4429   -5.2343    0.7139 O   0  0  0  0  0  0  0  0  0  0  0  0
   -1.0886   -4.2179    0.0905 C   0  0  0  0  0  0  0  0  0  0  0  0
   -0.6784   -2.8714    0.2174 C   0  0  0  0  0  0  0  0  0  0  0  0
   -1.4494   -1.8429   -0.3551 C   0  0  0  0  0  0  0  0  0  0  0  0
   -2.6176   -2.1749   -1.0636 C   0  0  0  0  0  0  0  0  0  0  0  0
   -2.9869   -3.5081   -1.2357 C   0  0  0  0  0  0  0  0  0  0  0  0
   -2.2241   -4.5243   -0.6646 C   0  0  0  0  0  0  0  0  0  0  0  0
   -1.0785   -0.4165   -0.2067 C   0  0  0  0  0  0  0  0  0  0  0  0
   -2.0744    0.5045   -0.1000 N   0  0  0  0  0  0  0  0  0  0  0  0
   -1.8223    1.8272    0.0318 C   0  0  0  0  0  0  0  0  0  0  0  0
   -2.8719    2.7224    0.2439 C   0  0  0  0  0  0  0  0  0  0  0  0
   -2.5988    4.0793    0.4035 C   0  0  0  0  0  0  0  0  0  0  0  0
   -1.2770    4.5285    0.3285 C   0  0  0  0  0  0  0  0  0  0  0  0
   -0.2630    3.6431    0.1158 N   0  0  0  0  0  0  0  0  0  0  0  0
   -0.4999    2.3086   -0.0225 C   0  0  0  0  0  0  0  0  0  0  0  0
    0.5588    1.3865   -0.1574 C   0  0  0  0  0  0  0  0  0  0  0  0
    0.2637    0.0113   -0.2026 C   0  0  0  0  0  0  0  0  0  0  0  0
    1.9671    1.8399   -0.2705 C   0  0  0  0  0  0  0  0  0  0  0  0
    2.9557    1.3192    0.5798 C   0  0  0  0  0  0  0  0  0  0  0  0
    4.2837    1.7428    0.4569 C   0  0  0  0  0  0  0  0  0  0  0  0
    4.6398    2.6596   -0.5365 C   0  0  0  0  0  0  0  0  0  0  0  0
    3.6660    3.1683   -1.3993 C   0  0  0  0  0  0  0  0  0  0  0  0
    2.3314    2.7735   -1.2597 C   0  0  0  0  0  0  0  0  0  0  0  0
   -0.6054   -4.7905    2.6944 H   0  0  0  0  0  0  0  0  0  0  0  0
    0.9937   -4.3814    1.9327 H   0  0  0  0  0  0  0  0  0  0  0  0
    0.5498   -6.0971    2.2652 H   0  0  0  0  0  0  0  0  0  0  0  0
    0.2049   -2.6209    0.7878 H   0  0  0  0  0  0  0  0  0  0  0  0
   -3.2291   -1.3993   -1.5081 H   0  0  0  0  0  0  0  0  0  0  0  0
   -3.8770   -3.7536   -1.7998 H   0  0  0  0  0  0  0  0  0  0  0  0
   -2.5364   -5.5548   -0.7770 H   0  0  0  0  0  0  0  0  0  0  0  0
   -3.8922    2.3629    0.3051 H   0  0  0  0  0  0  0  0  0  0  0  0
   -3.4053    4.7778    0.5869 H   0  0  0  0  0  0  0  0  0  0  0  0
   -1.0573    5.5798    0.4527 H   0  0  0  0  0  0  0  0  0  0  0  0
    1.0672   -0.7073   -0.3147 H   0  0  0  0  0  0  0  0  0  0  0  0
    2.6918    0.6075    1.3513 H   0  0  0  0  0  0  0  0  0  0  0  0
    5.0383    1.3563    1.1292 H   0  0  0  0  0  0  0  0  0  0  0  0
    5.6709    2.9731   -0.6398 H   0  0  0  0  0  0  0  0  0  0  0  0
    3.9463    3.8659   -2.1789 H   0  0  0  0  0  0  0  0  0  0  0  0
    1.5890    3.1660   -1.9445 H   0  0  0  0  0  0  0  0  0  0  0  0
  1 25  1  0  0  0  0
  1 26  1  0  0  0  0
  1 27  1  0  0  0  0
  2  1  1  0  0  0  0
  3  2  1  0  0  0  0
  4  3  2  0  0  0  0
  4 28  1  0  0  0  0
  5  4  1  0  0  0  0
  6  5  2  0  0  0  0
  6 29  1  0  0  0  0
  7  6  1  0  0  0  0
  7 30  1  0  0  0  0
  8  7  2  0  0  0  0
  8  3  1  0  0  0  0
  8 31  1  0  0  0  0
  9  5  1  0  0  0  0
 10  9  2  0  0  0  0
 11 10  1  0  0  0  0
 12 11  2  0  0  0  0
 12 32  1  0  0  0  0
 13 12  1  0  0  0  0
 13 33  1  0  0  0  0
 14 13  2  0  0  0  0
 14 34  1  0  0  0  0
 15 14  1  0  0  0  0
 16 15  2  0  0  0  0
 16 11  1  0  0  0  0
 17 16  1  0  0  0  0
 18 17  2  0  0  0  0
 18  9  1  0  0  0  0
 18 35  1  0  0  0  0
 19 17  1  0  0  0  0
 20 19  2  0  0  0  0
 20 36  1  0  0  0  0
 21 20  1  0  0  0  0
 21 37  1  0  0  0  0
 22 21  2  0  0  0  0
 22 38  1  0  0  0  0
 23 22  1  0  0  0  0
 23 39  1  0  0  0  0
 24 23  2  0  0  0  0
 24 19  1  0  0  0  0
 24 40  1  0  0  0  0
M  END
>  <MOL Chiral Flag>
0

>  <energy>
104.61044918861325

$$$$
