>76.sdf
 OpenBabel10052218203D

 64 70  0  0  0  0  0  0  0  0999 V2000
   -3.2108    3.8127   -3.7269 C   0  0  0  0  0  0  0  0  0  0  0  0
   -2.7988    2.5366   -4.0611 O   0  0  0  0  0  0  0  0  0  0  0  0
   -2.3952    1.5549   -3.2038 C   0  0  0  0  0  0  0  0  0  0  0  0
   -2.4186    1.6979   -1.7925 C   0  0  0  0  0  0  0  0  0  0  0  0
   -2.8899    2.8397   -1.2171 O   0  0  0  0  0  0  0  0  0  0  0  0
   -3.0274    3.0620    0.1413 C   0  0  0  0  0  0  0  0  0  0  0  0
   -1.9441    0.6450   -1.0003 C   0  0  0  0  0  0  0  0  0  0  0  0
   -1.4554   -0.5516   -1.5621 C   0  0  0  0  0  0  0  0  0  0  0  0
   -1.4622   -0.6969   -2.9530 C   0  0  0  0  0  0  0  0  0  0  0  0
   -1.9244    0.3517   -3.7622 C   0  0  0  0  0  0  0  0  0  0  0  0
   -0.9128   -1.5907   -0.5944 C   0  0  1  0  0  0  0  0  0  0  0  0
   -1.0886   -3.0922   -0.5613 C   0  0  0  0  0  0  0  0  0  0  0  0
   -0.7391   -3.7723    0.5359 C   0  0  0  0  0  0  0  0  0  0  0  0
   -1.0590   -5.2383    0.4425 C   0  0  0  0  0  0  0  0  0  0  0  0
   -1.7198   -5.3917   -0.9599 C   0  0  0  0  0  0  0  0  0  0  0  0
   -1.7003   -3.9969   -1.5003 C   0  0  0  0  0  0  0  0  0  0  0  0
   -2.1622   -3.6764   -2.5825 O   0  0  0  0  0  0  0  0  0  0  0  0
   -0.1009   -3.1352    1.6627 N   0  0  0  0  0  0  0  0  0  0  0  0
    0.4607   -1.8358    1.4493 C   0  0  0  0  0  0  0  0  0  0  0  0
    0.2323   -1.1598    0.2877 C   0  0  0  0  0  0  0  0  0  0  0  0
    1.1263   -0.1002    0.2973 C   0  0  0  0  0  0  0  0  0  0  0  0
    1.7592   -0.0908    1.4923 N   0  0  0  0  0  0  0  0  0  0  0  0
    1.3402   -1.1303    2.2091 N   0  0  0  0  0  0  0  0  0  0  0  0
    1.7638   -1.3184    3.5819 C   0  0  0  0  0  0  0  0  0  0  0  0
    1.0245   -2.1010    4.4910 C   0  0  0  0  0  0  0  0  0  0  0  0
    1.4095   -2.1869    5.8311 C   0  0  0  0  0  0  0  0  0  0  0  0
    2.5283   -1.4907    6.2925 C   0  0  0  0  0  0  0  0  0  0  0  0
    2.9659   -1.6023    7.9921 Cl  0  0  0  0  0  0  0  0  0  0  0  0
    3.2685   -0.6973    5.4038 C   0  0  0  0  0  0  0  0  0  0  0  0
    4.6660    0.2172    5.9549 Cl  0  0  0  0  0  0  0  0  0  0  0  0
    2.8839   -0.6098    4.0612 C   0  0  0  0  0  0  0  0  0  0  0  0
    1.4521    0.8288   -0.8076 C   0  0  0  0  0  0  0  0  0  0  0  0
    1.3450    0.5353   -2.1653 C   0  0  0  0  0  0  0  0  0  0  0  0
    1.7854    1.5740   -2.9046 N   0  0  0  0  0  0  0  0  0  0  0  0
    2.1889    2.5147   -2.0379 C   0  0  0  0  0  0  0  0  0  0  0  0
    2.0127    2.0921   -0.7431 C   0  0  0  0  0  0  0  0  0  0  0  0
    2.3762    2.8970    0.3356 C   0  0  0  0  0  0  0  0  0  0  0  0
    2.9300    4.1631    0.0589 C   0  0  0  0  0  0  0  0  0  0  0  0
    3.1088    4.5908   -1.2777 C   0  0  0  0  0  0  0  0  0  0  0  0
    2.7353    3.7562   -2.3445 C   0  0  0  0  0  0  0  0  0  0  0  0
   -2.4007    4.3520   -3.1884 H   0  0  0  0  0  0  0  0  0  0  0  0
   -3.4372    4.3759   -4.6543 H   0  0  0  0  0  0  0  0  0  0  0  0
   -4.1364    3.7785   -3.1139 H   0  0  0  0  0  0  0  0  0  0  0  0
   -3.4512    4.0735    0.3052 H   0  0  0  0  0  0  0  0  0  0  0  0
   -2.0400    3.0100    0.6485 H   0  0  0  0  0  0  0  0  0  0  0  0
   -3.7239    2.3166    0.5841 H   0  0  0  0  0  0  0  0  0  0  0  0
   -1.9360    0.7501    0.0767 H   0  0  0  0  0  0  0  0  0  0  0  0
   -1.0805   -1.5959   -3.4147 H   0  0  0  0  0  0  0  0  0  0  0  0
   -1.9027    0.2374   -4.8384 H   0  0  0  0  0  0  0  0  0  0  0  0
   -1.7370   -1.4783    0.1517 H   0  0  0  0  0  0  0  0  0  0  0  0
   -0.1224   -5.8323    0.5102 H   0  0  0  0  0  0  0  0  0  0  0  0
   -1.7628   -5.5276    1.2514 H   0  0  0  0  0  0  0  0  0  0  0  0
   -1.1316   -6.0679   -1.6171 H   0  0  0  0  0  0  0  0  0  0  0  0
   -2.7686   -5.7466   -0.8695 H   0  0  0  0  0  0  0  0  0  0  0  0
    0.1768   -3.7182    2.4598 H   0  0  0  0  0  0  0  0  0  0  0  0
    0.1246   -2.6083    4.1999 H   0  0  0  0  0  0  0  0  0  0  0  0
    0.8208   -2.7813    6.5185 H   0  0  0  0  0  0  0  0  0  0  0  0
    3.4545    0.0222    3.3927 H   0  0  0  0  0  0  0  0  0  0  0  0
    1.0108   -0.3950   -2.5915 H   0  0  0  0  0  0  0  0  0  0  0  0
    1.8257    1.6197   -3.9474 H   0  0  0  0  0  0  0  0  0  0  0  0
    2.2362    2.5668    1.3556 H   0  0  0  0  0  0  0  0  0  0  0  0
    3.2206    4.8128    0.8731 H   0  0  0  0  0  0  0  0  0  0  0  0
    3.5364    5.5635   -1.4822 H   0  0  0  0  0  0  0  0  0  0  0  0
    2.8708    4.0680   -3.3727 H   0  0  0  0  0  0  0  0  0  0  0  0
  1 41  1  0  0  0  0
  1 42  1  0  0  0  0
  1 43  1  0  0  0  0
  2  1  1  0  0  0  0
  3  2  1  0  0  0  0
  4  3  2  0  0  0  0
  5  4  1  0  0  0  0
  6  5  1  0  0  0  0
  6 44  1  0  0  0  0
  6 45  1  0  0  0  0
  6 46  1  0  0  0  0
  7  4  1  0  0  0  0
  7 47  1  0  0  0  0
  8  7  2  0  0  0  0
  9  8  1  0  0  0  0
  9 48  1  0  0  0  0
 10  9  2  0  0  0  0
 10  3  1  0  0  0  0
 10 49  1  0  0  0  0
 11  8  1  0  0  0  0
 11 50  1  1  0  0  0
 12 11  1  0  0  0  0
 13 12  2  0  0  0  0
 14 13  1  0  0  0  0
 14 51  1  0  0  0  0
 14 52  1  0  0  0  0
 15 14  1  0  0  0  0
 15 53  1  0  0  0  0
 15 54  1  0  0  0  0
 16 15  1  0  0  0  0
 16 12  1  0  0  0  0
 17 16  2  0  0  0  0
 18 13  1  0  0  0  0
 18 55  1  0  0  0  0
 19 18  1  0  0  0  0
 20 19  2  0  0  0  0
 20 11  1  0  0  0  0
 21 20  1  0  0  0  0
 22 21  2  0  0  0  0
 23 22  1  0  0  0  0
 23 19  1  0  0  0  0
 24 23  1  0  0  0  0
 25 24  2  0  0  0  0
 25 56  1  0  0  0  0
 26 25  1  0  0  0  0
 26 57  1  0  0  0  0
 27 26  2  0  0  0  0
 28 27  1  0  0  0  0
 29 27  1  0  0  0  0
 30 29  1  0  0  0  0
 31 29  2  0  0  0  0
 31 24  1  0  0  0  0
 31 58  1  0  0  0  0
 32 21  1  0  0  0  0
 33 32  2  0  0  0  0
 33 59  1  0  0  0  0
 34 33  1  0  0  0  0
 34 60  1  0  0  0  0
 35 34  1  0  0  0  0
 36 35  2  0  0  0  0
 36 32  1  0  0  0  0
 37 36  1  0  0  0  0
 37 61  1  0  0  0  0
 38 37  2  0  0  0  0
 38 62  1  0  0  0  0
 39 38  1  0  0  0  0
 39 63  1  0  0  0  0
 40 39  2  0  0  0  0
 40 35  1  0  0  0  0
 40 64  1  0  0  0  0
M  END
>  <MOL Chiral Flag>
0

>  <energy>
179.63364298205212

$$$$
