>78.sdf
 OpenBabel10052218213D

 32 34  0  0  0  0  0  0  0  0999 V2000
   -3.7474    0.7367   -1.9526 C   0  0  0  0  0  0  0  0  0  0  0  0
   -3.5847   -0.2698   -0.9149 N   0  0  0  0  0  0  0  0  0  0  0  0
   -4.7422   -1.0589   -0.5235 C   0  0  0  0  0  0  0  0  0  0  0  0
   -2.3858   -0.3625   -0.1247 C   0  0  0  0  0  0  0  0  0  0  0  0
   -2.4401   -0.9793    1.0929 N   0  0  0  0  0  0  0  0  0  0  0  0
   -1.3453   -1.1043    1.8951 C   0  0  0  0  0  0  0  0  0  0  0  0
   -0.1079   -0.6211    1.4625 C   0  0  0  0  0  0  0  0  0  0  0  0
   -0.0357   -0.0323    0.2386 N   0  0  0  0  0  0  0  0  0  0  0  0
   -1.1243    0.1228   -0.5456 C   0  0  0  0  0  0  0  0  0  0  0  0
   -0.8305    0.7293   -1.7126 N   0  0  0  0  0  0  0  0  0  0  0  0
    0.4982    0.9689   -1.6541 C   0  0  0  0  0  0  0  0  0  0  0  0
    1.1904    1.5386   -2.6700 F   0  0  0  0  0  0  0  0  0  0  0  0
    1.0065    0.4963   -0.4490 C   0  0  0  0  0  0  0  0  0  0  0  0
    2.4357    0.5212   -0.0023 C   0  0  0  0  0  0  0  0  0  0  0  0
    2.8224   -0.2298    1.0637 N   0  0  0  0  0  0  0  0  0  0  0  0
    4.1132   -0.2640    1.4880 C   0  0  0  0  0  0  0  0  0  0  0  0
    4.4752   -1.0820    2.5807 N   0  0  0  0  0  0  0  0  0  0  0  0
    5.0565    0.4755    0.8498 N   0  0  0  0  0  0  0  0  0  0  0  0
    4.7264    1.2484   -0.2152 C   0  0  0  0  0  0  0  0  0  0  0  0
    3.4085    1.2839   -0.6719 C   0  0  0  0  0  0  0  0  0  0  0  0
   -3.6900    1.7410   -1.4779 H   0  0  0  0  0  0  0  0  0  0  0  0
   -4.7443    0.6658   -2.4379 H   0  0  0  0  0  0  0  0  0  0  0  0
   -2.9976    0.6425   -2.7575 H   0  0  0  0  0  0  0  0  0  0  0  0
   -5.4993   -1.1138   -1.3345 H   0  0  0  0  0  0  0  0  0  0  0  0
   -5.2069   -0.6013    0.3743 H   0  0  0  0  0  0  0  0  0  0  0  0
   -4.4411   -2.1033   -0.2899 H   0  0  0  0  0  0  0  0  0  0  0  0
   -1.4372   -1.5787    2.8620 H   0  0  0  0  0  0  0  0  0  0  0  0
    0.7500   -0.7260    2.1048 H   0  0  0  0  0  0  0  0  0  0  0  0
    5.4549   -1.1245    2.8968 H   0  0  0  0  0  0  0  0  0  0  0  0
    3.7650   -1.6581    3.0557 H   0  0  0  0  0  0  0  0  0  0  0  0
    5.4890    1.8340   -0.7112 H   0  0  0  0  0  0  0  0  0  0  0  0
    3.1682    1.9048   -1.5193 H   0  0  0  0  0  0  0  0  0  0  0  0
  1 21  1  0  0  0  0
  1 22  1  0  0  0  0
  1 23  1  0  0  0  0
  2  1  1  0  0  0  0
  3  2  1  0  0  0  0
  3 24  1  0  0  0  0
  3 25  1  0  0  0  0
  3 26  1  0  0  0  0
  4  2  1  0  0  0  0
  5  4  2  0  0  0  0
  6  5  1  0  0  0  0
  6 27  1  0  0  0  0
  7  6  2  0  0  0  0
  7 28  1  0  0  0  0
  8  7  1  0  0  0  0
  9  8  1  0  0  0  0
  9  4  1  0  0  0  0
 10  9  2  0  0  0  0
 11 10  1  0  0  0  0
 12 11  1  0  0  0  0
 13 11  2  0  0  0  0
 13  8  1  0  0  0  0
 14 13  1  0  0  0  0
 15 14  2  0  0  0  0
 16 15  1  0  0  0  0
 17 16  1  0  0  0  0
 17 29  1  0  0  0  0
 17 30  1  0  0  0  0
 18 16  2  0  0  0  0
 19 18  1  0  0  0  0
 19 31  1  0  0  0  0
 20 19  2  0  0  0  0
 20 14  1  0  0  0  0
 20 32  1  0  0  0  0
M  END
>  <MOL Chiral Flag>
0

>  <energy>
-111.84407897630882

$$$$
