>81.sdf
 OpenBabel10052218233D

 81 82  0  0  0  0  0  0  0  0999 V2000
   -5.3521    1.9344   -0.2924 C   0  0  0  0  0  0  0  0  0  0  0  0
   -5.8780    0.5800   -0.7780 C   0  0  0  0  0  0  0  0  0  0  0  0
   -4.8122   -0.2670   -1.5071 C   0  0  0  0  0  0  0  0  0  0  0  0
   -3.5727   -0.6082   -0.6610 C   0  0  0  0  0  0  0  0  0  0  0  0
   -3.8895   -1.5230    0.5426 C   0  0  0  0  0  0  0  0  0  0  0  0
   -2.6759   -1.7478    1.4665 C   0  0  0  0  0  0  0  0  0  0  0  0
   -2.3209   -0.4619    2.2298 C   0  0  0  0  0  0  0  0  0  0  0  0
   -1.1283   -0.6236    3.1833 C   0  0  0  0  0  0  0  0  0  0  0  0
   -0.8364    0.6704    3.9811 C   0  0  0  0  0  0  0  0  0  0  0  0
   -0.5024    1.8571    3.0640 C   0  0  0  0  0  0  0  0  0  0  0  0
   -0.1335    3.1375    3.8049 C   0  0  0  0  0  0  0  0  0  0  0  0
    0.0051    4.3641    2.8700 C   0  0  0  0  0  0  0  0  0  0  0  0
    1.0858    4.2844    1.7723 C   0  0  0  0  0  0  0  0  0  0  0  0
    0.7152    3.4351    0.7360 O   0  0  0  0  0  0  0  0  0  0  0  0
    1.4069    2.3396    0.3102 C   0  0  0  0  0  0  0  0  0  0  0  0
    2.8296    2.2663    0.2423 C   0  0  0  0  0  0  0  0  0  0  0  0
    3.6552    3.3283    0.4340 O   0  0  0  0  0  0  0  0  0  0  0  0
    3.4565    4.5959   -0.0825 C   0  0  0  0  0  0  0  0  0  0  0  0
    3.4324    1.0328   -0.0436 C   0  0  0  0  0  0  0  0  0  0  0  0
    2.6677   -0.1189   -0.3018 C   0  0  0  0  0  0  0  0  0  0  0  0
    3.3794   -1.4549   -0.5226 C   0  0  0  0  0  0  0  0  0  0  0  0
    3.3242   -2.0542   -1.9004 N   0  3  0  0  0  0  0  0  0  0  0  0
    3.8391   -1.0585   -2.8755 C   0  0  0  0  0  0  0  0  0  0  0  0
    4.2674   -3.2089   -1.9016 C   0  0  0  0  0  0  0  0  0  0  0  0
    1.9260   -2.4640   -2.2943 C   0  0  0  0  0  0  0  0  0  0  0  0
    1.2210   -3.4712   -1.3576 C   0  0  0  0  0  0  0  0  0  0  0  0
   -0.0737   -3.7189   -2.1171 C   0  0  0  0  0  0  0  0  0  0  0  0
    0.3337   -3.7541   -3.5980 C   0  0  0  0  0  0  0  0  0  0  0  0
    1.7721   -3.2161   -3.6297 C   0  0  0  0  0  0  0  0  0  0  0  0
    1.2694   -0.0139   -0.2913 C   0  0  0  0  0  0  0  0  0  0  0  0
    0.6545    1.2019   -0.0057 C   0  0  0  0  0  0  0  0  0  0  0  0
   -6.1815    2.5120    0.1669 H   0  0  0  0  0  0  0  0  0  0  0  0
   -4.9415    2.5188   -1.1431 H   0  0  0  0  0  0  0  0  0  0  0  0
   -4.5668    1.8093    0.4814 H   0  0  0  0  0  0  0  0  0  0  0  0
   -6.3027    0.0247    0.0829 H   0  0  0  0  0  0  0  0  0  0  0  0
   -6.7088    0.7708   -1.4909 H   0  0  0  0  0  0  0  0  0  0  0  0
   -4.4733    0.3045   -2.3990 H   0  0  0  0  0  0  0  0  0  0  0  0
   -5.2807   -1.2084   -1.8666 H   0  0  0  0  0  0  0  0  0  0  0  0
   -3.1098    0.3455   -0.3559 H   0  0  0  0  0  0  0  0  0  0  0  0
   -2.8312   -1.1315   -1.3035 H   0  0  0  0  0  0  0  0  0  0  0  0
   -4.7083   -1.1059    1.1635 H   0  0  0  0  0  0  0  0  0  0  0  0
   -4.2300   -2.5026    0.1419 H   0  0  0  0  0  0  0  0  0  0  0  0
   -2.9450   -2.5256    2.2138 H   0  0  0  0  0  0  0  0  0  0  0  0
   -1.8093   -2.1157    0.8738 H   0  0  0  0  0  0  0  0  0  0  0  0
   -2.0693    0.3140    1.4932 H   0  0  0  0  0  0  0  0  0  0  0  0
   -3.2074   -0.1352    2.8163 H   0  0  0  0  0  0  0  0  0  0  0  0
   -0.2273   -0.9134    2.5982 H   0  0  0  0  0  0  0  0  0  0  0  0
   -1.3488   -1.4368    3.9083 H   0  0  0  0  0  0  0  0  0  0  0  0
   -1.7170    0.9253    4.6097 H   0  0  0  0  0  0  0  0  0  0  0  0
    0.0279    0.4749    4.6526 H   0  0  0  0  0  0  0  0  0  0  0  0
   -1.3745    2.0950    2.4232 H   0  0  0  0  0  0  0  0  0  0  0  0
    0.3671    1.5540    2.4694 H   0  0  0  0  0  0  0  0  0  0  0  0
    0.8079    2.9759    4.3739 H   0  0  0  0  0  0  0  0  0  0  0  0
   -0.9424    3.3734    4.5306 H   0  0  0  0  0  0  0  0  0  0  0  0
    0.2642    5.2209    3.5294 H   0  0  0  0  0  0  0  0  0  0  0  0
   -0.9731    4.5946    2.3935 H   0  0  0  0  0  0  0  0  0  0  0  0
    1.1790    5.3035    1.3422 H   0  0  0  0  0  0  0  0  0  0  0  0
    2.0465    3.9945    2.2482 H   0  0  0  0  0  0  0  0  0  0  0  0
    2.5302    4.6636   -0.6931 H   0  0  0  0  0  0  0  0  0  0  0  0
    4.3117    4.8494   -0.7415 H   0  0  0  0  0  0  0  0  0  0  0  0
    3.4358    5.3398    0.7392 H   0  0  0  0  0  0  0  0  0  0  0  0
    4.5143    0.9770   -0.0625 H   0  0  0  0  0  0  0  0  0  0  0  0
    3.0201   -2.1748    0.2436 H   0  0  0  0  0  0  0  0  0  0  0  0
    4.4500   -1.2878   -0.2591 H   0  0  0  0  0  0  0  0  0  0  0  0
    4.8525   -0.6979   -2.5877 H   0  0  0  0  0  0  0  0  0  0  0  0
    3.1705   -0.1723   -2.9422 H   0  0  0  0  0  0  0  0  0  0  0  0
    3.9237   -1.4920   -3.8953 H   0  0  0  0  0  0  0  0  0  0  0  0
    3.9601   -3.9955   -1.1815 H   0  0  0  0  0  0  0  0  0  0  0  0
    4.3882   -3.6590   -2.9077 H   0  0  0  0  0  0  0  0  0  0  0  0
    5.2935   -2.8929   -1.6053 H   0  0  0  0  0  0  0  0  0  0  0  0
    1.2994   -1.5515   -2.3949 H   0  0  0  0  0  0  0  0  0  0  0  0
    1.0275   -3.1217   -0.3233 H   0  0  0  0  0  0  0  0  0  0  0  0
    1.7878   -4.4258   -1.3045 H   0  0  0  0  0  0  0  0  0  0  0  0
   -0.6826   -2.7967   -1.9674 H   0  0  0  0  0  0  0  0  0  0  0  0
   -0.6903   -4.5767   -1.7753 H   0  0  0  0  0  0  0  0  0  0  0  0
   -0.3733   -3.1070   -4.1619 H   0  0  0  0  0  0  0  0  0  0  0  0
    0.3218   -4.7762   -4.0362 H   0  0  0  0  0  0  0  0  0  0  0  0
    2.0175   -2.6594   -4.5577 H   0  0  0  0  0  0  0  0  0  0  0  0
    2.4191   -4.1175   -3.5974 H   0  0  0  0  0  0  0  0  0  0  0  0
    0.6392   -0.8708   -0.4547 H   0  0  0  0  0  0  0  0  0  0  0  0
   -0.4260    1.2468    0.0358 H   0  0  0  0  0  0  0  0  0  0  0  0
  1 32  1  0  0  0  0
  1 33  1  0  0  0  0
  1 34  1  0  0  0  0
  2  1  1  0  0  0  0
  2 35  1  0  0  0  0
  2 36  1  0  0  0  0
  3  2  1  0  0  0  0
  3 37  1  0  0  0  0
  3 38  1  0  0  0  0
  4  3  1  0  0  0  0
  4 39  1  0  0  0  0
  4 40  1  0  0  0  0
  5  4  1  0  0  0  0
  5 41  1  0  0  0  0
  5 42  1  0  0  0  0
  6  5  1  0  0  0  0
  6 43  1  0  0  0  0
  6 44  1  0  0  0  0
  7  6  1  0  0  0  0
  7 45  1  0  0  0  0
  7 46  1  0  0  0  0
  8  7  1  0  0  0  0
  8 47  1  0  0  0  0
  8 48  1  0  0  0  0
  9  8  1  0  0  0  0
  9 49  1  0  0  0  0
  9 50  1  0  0  0  0
 10  9  1  0  0  0  0
 10 51  1  0  0  0  0
 10 52  1  0  0  0  0
 11 10  1  0  0  0  0
 11 53  1  0  0  0  0
 11 54  1  0  0  0  0
 12 11  1  0  0  0  0
 12 55  1  0  0  0  0
 12 56  1  0  0  0  0
 13 12  1  0  0  0  0
 13 57  1  0  0  0  0
 13 58  1  0  0  0  0
 14 13  1  0  0  0  0
 15 14  1  0  0  0  0
 16 15  2  0  0  0  0
 17 16  1  0  0  0  0
 18 17  1  0  0  0  0
 18 59  1  0  0  0  0
 18 60  1  0  0  0  0
 18 61  1  0  0  0  0
 19 16  1  0  0  0  0
 19 62  1  0  0  0  0
 20 19  2  0  0  0  0
 21 20  1  0  0  0  0
 21 63  1  0  0  0  0
 21 64  1  0  0  0  0
 22 21  1  0  0  0  0
 23 22  1  0  0  0  0
 23 65  1  0  0  0  0
 23 66  1  0  0  0  0
 23 67  1  0  0  0  0
 24 22  1  0  0  0  0
 24 68  1  0  0  0  0
 24 69  1  0  0  0  0
 24 70  1  0  0  0  0
 25 22  1  0  0  0  0
 25 71  1  0  0  0  0
 26 25  1  0  0  0  0
 26 72  1  0  0  0  0
 26 73  1  0  0  0  0
 27 26  1  0  0  0  0
 27 74  1  0  0  0  0
 27 75  1  0  0  0  0
 28 27  1  0  0  0  0
 28 76  1  0  0  0  0
 28 77  1  0  0  0  0
 29 28  1  0  0  0  0
 29 25  1  0  0  0  0
 29 78  1  0  0  0  0
 29 79  1  0  0  0  0
 30 20  1  0  0  0  0
 30 80  1  0  0  0  0
 31 30  2  0  0  0  0
 31 15  1  0  0  0  0
 31 81  1  0  0  0  0
M  CHG  1  22   1
M  END
>  <MOL Chiral Flag>
0

>  <energy>
75.519399073739791

$$$$
