>84.sdf
 OpenBabel10052218243D

 38 40  0  0  0  0  0  0  0  0999 V2000
   -4.9264    1.3704   -0.6221 F   0  0  0  0  0  0  0  0  0  0  0  0
   -4.6424    1.9288    0.6124 C   0  0  0  0  0  0  0  0  0  0  0  0
   -5.7285    1.7627    1.4517 F   0  0  0  0  0  0  0  0  0  0  0  0
   -4.4033    3.2802    0.4440 F   0  0  0  0  0  0  0  0  0  0  0  0
   -3.4004    1.2699    1.2074 C   0  0  0  0  0  0  0  0  0  0  0  0
   -3.6016   -0.2267    1.4484 C   0  0  0  0  0  0  0  0  0  0  0  0
   -2.0131   -0.9721    1.9002 S   0  0  0  0  0  0  0  0  0  0  0  0
   -2.2489   -2.3554    2.5271 O   0  0  0  0  0  0  0  0  0  0  0  0
   -1.4237   -0.2337    3.1120 O   0  0  0  0  0  0  0  0  0  0  0  0
   -0.7449   -1.1108    0.6442 C   0  0  0  0  0  0  0  0  0  0  0  0
   -0.7104   -2.0070   -0.4172 C   0  0  0  0  0  0  0  0  0  0  0  0
    0.4058   -1.7508   -1.1329 N   0  0  0  0  0  0  0  0  0  0  0  0
    0.9122   -2.3350   -2.2537 C   0  0  0  0  0  0  0  0  0  0  0  0
    2.1285   -1.8711   -2.7641 C   0  0  0  0  0  0  0  0  0  0  0  0
    2.8072   -2.5911   -4.2116 Cl  0  0  0  0  0  0  0  0  0  0  0  0
    2.8030   -0.8270   -2.1123 C   0  0  0  0  0  0  0  0  0  0  0  0
    2.2465   -0.2171   -0.9695 C   0  0  0  0  0  0  0  0  0  0  0  0
    1.0163   -0.7193   -0.5099 C   0  0  0  0  0  0  0  0  0  0  0  0
    0.3380   -0.3014    0.5829 N   0  0  0  0  0  0  0  0  0  0  0  0
    2.9698    0.8925   -0.2966 C   0  0  0  0  0  0  0  0  0  0  0  0
    2.2999    2.0444    0.1482 C   0  0  0  0  0  0  0  0  0  0  0  0
    3.0301    3.0773    0.7472 C   0  0  0  0  0  0  0  0  0  0  0  0
    4.3722    2.9523    0.9274 N   0  0  0  0  0  0  0  0  0  0  0  0
    5.0423    1.8419    0.5219 C   0  0  0  0  0  0  0  0  0  0  0  0
    4.3590    0.8037   -0.1110 C   0  0  0  0  0  0  0  0  0  0  0  0
   -1.6716   -3.0284   -0.7063 N   0  0  0  0  0  0  0  0  0  0  0  0
   -2.6726   -3.1127   -0.0623 O   0  0  0  0  0  0  0  0  0  0  0  0
   -1.4758   -3.8190   -1.5755 O   0  0  0  0  0  0  0  0  0  0  0  0
   -3.1357    1.7590    2.1702 H   0  0  0  0  0  0  0  0  0  0  0  0
   -2.5600    1.4188    0.4937 H   0  0  0  0  0  0  0  0  0  0  0  0
   -4.3626   -0.4116    2.2359 H   0  0  0  0  0  0  0  0  0  0  0  0
   -3.9343   -0.7240    0.5130 H   0  0  0  0  0  0  0  0  0  0  0  0
    0.4058   -3.1440   -2.7541 H   0  0  0  0  0  0  0  0  0  0  0  0
    3.7434   -0.4732   -2.5155 H   0  0  0  0  0  0  0  0  0  0  0  0
    1.2341    2.1619   -0.0009 H   0  0  0  0  0  0  0  0  0  0  0  0
    2.5302    3.9829    1.0641 H   0  0  0  0  0  0  0  0  0  0  0  0
    6.1082    1.7625    0.6901 H   0  0  0  0  0  0  0  0  0  0  0  0
    4.9035   -0.0778   -0.4262 H   0  0  0  0  0  0  0  0  0  0  0  0
  2  1  1  0  0  0  0
  3  2  1  0  0  0  0
  4  2  1  0  0  0  0
  5  2  1  0  0  0  0
  5 29  1  0  0  0  0
  5 30  1  0  0  0  0
  6  5  1  0  0  0  0
  6 31  1  0  0  0  0
  6 32  1  0  0  0  0
  7  6  1  0  0  0  0
  8  7  2  0  0  0  0
  9  7  2  0  0  0  0
 10  7  1  0  0  0  0
 11 10  2  0  0  0  0
 12 11  1  0  0  0  0
 13 12  1  0  0  0  0
 13 33  1  0  0  0  0
 14 13  2  0  0  0  0
 15 14  1  0  0  0  0
 16 14  1  0  0  0  0
 16 34  1  0  0  0  0
 17 16  2  0  0  0  0
 18 17  1  0  0  0  0
 18 12  1  0  0  0  0
 19 18  2  0  0  0  0
 19 10  1  0  0  0  0
 20 17  1  0  0  0  0
 21 20  2  0  0  0  0
 21 35  1  0  0  0  0
 22 21  1  0  0  0  0
 22 36  1  0  0  0  0
 23 22  2  0  0  0  0
 24 23  1  0  0  0  0
 24 37  1  0  0  0  0
 25 24  2  0  0  0  0
 25 20  1  0  0  0  0
 25 38  1  0  0  0  0
 26 11  1  0  0  0  0
 27 26  2  0  0  0  0
 28 26  2  0  0  0  0
M  END
>  <MOL Chiral Flag>
0

>  <energy>
12.70352737500869

$$$$
