>85.sdf
 OpenBabel10062217263D

 84 90  0  0  0  0  0  0  0  0999 V2000
   -3.4487    1.7571    1.2195 C   0  0  1  0  0  0  0  0  0  0  0  0
   -2.9186    3.0379    0.4825 C   0  0  0  0  0  0  0  0  0  0  0  0
   -1.4060    3.2358    0.3911 C   0  0  0  0  0  0  0  0  0  0  0  0
   -0.9140    4.5084    0.0460 C   0  0  0  0  0  0  0  0  0  0  0  0
    0.4645    4.7525    0.0065 C   0  0  0  0  0  0  0  0  0  0  0  0
    1.3705    3.7182    0.2679 C   0  0  0  0  0  0  0  0  0  0  0  0
    0.8906    2.4299    0.5647 C   0  0  0  0  0  0  0  0  0  0  0  0
    1.7123    1.3645    0.7455 O   0  0  0  0  0  0  0  0  0  0  0  0
    2.4676    0.7149   -0.2010 C   0  0  0  0  0  0  0  0  0  0  0  0
    3.1095   -0.5015    0.1745 C   0  0  0  0  0  0  0  0  0  0  0  0
    3.9689   -1.1362   -0.7456 C   0  0  0  0  0  0  0  0  0  0  0  0
    4.7653   -2.3423   -0.3521 C   0  0  0  0  0  0  0  0  0  0  0  0
    4.9760   -2.3600    1.1623 C   0  0  0  0  0  0  0  0  0  0  0  0
    3.6695   -2.3835    1.8230 N   0  3  1  0  0  0  0  0  0  0  0  0
    3.8164   -2.6564    3.2664 C   0  0  0  0  0  0  0  0  0  0  0  0
    2.8497   -1.1581    1.5584 C   0  0  2  0  0  0  0  0  0  0  0  0
    1.3178   -1.5060    1.7194 C   0  0  0  0  0  0  0  0  0  0  0  0
    0.6614   -2.3284    0.5896 C   0  0  0  0  0  0  0  0  0  0  0  0
    0.9568   -3.6805    0.3136 C   0  0  0  0  0  0  0  0  0  0  0  0
    0.3388   -4.3416   -0.7486 C   0  0  0  0  0  0  0  0  0  0  0  0
   -0.6314   -3.6972   -1.5271 C   0  0  0  0  0  0  0  0  0  0  0  0
   -1.2392   -4.3585   -2.5329 O   0  0  0  0  0  0  0  0  0  0  0  0
   -1.0026   -2.3794   -1.2257 C   0  0  0  0  0  0  0  0  0  0  0  0
   -2.0393   -1.7979   -1.9078 O   0  0  0  0  0  0  0  0  0  0  0  0
   -3.0521   -1.1804   -1.2371 C   0  0  0  0  0  0  0  0  0  0  0  0
   -4.2880   -1.8380   -1.0954 C   0  0  0  0  0  0  0  0  0  0  0  0
   -4.5250   -3.0232   -1.6985 O   0  0  0  0  0  0  0  0  0  0  0  0
   -5.2797   -1.2823   -0.2866 C   0  0  0  0  0  0  0  0  0  0  0  0
   -5.0433   -0.0928    0.4184 C   0  0  0  0  0  0  0  0  0  0  0  0
   -6.0719    0.4120    1.3775 C   0  0  0  0  0  0  0  0  0  0  0  0
   -5.3575    0.9665    2.5998 C   0  0  0  0  0  0  0  0  0  0  0  0
   -4.5296    2.1222    2.1937 N   0  3  1  0  0  0  0  0  0  0  0  0
   -3.9435    2.7191    3.4199 C   0  0  0  0  0  0  0  0  0  0  0  0
   -3.8090    0.5791    0.2861 C   0  0  0  0  0  0  0  0  0  0  0  0
   -2.8507    0.0538   -0.5958 C   0  0  0  0  0  0  0  0  0  0  0  0
   -0.3278   -1.7104   -0.1807 C   0  0  0  0  0  0  0  0  0  0  0  0
    4.1058   -0.6468   -2.0416 C   0  0  0  0  0  0  0  0  0  0  0  0
    3.4221    0.4989   -2.4639 C   0  0  0  0  0  0  0  0  0  0  0  0
    3.5572    0.9580   -3.7383 O   0  0  0  0  0  0  0  0  0  0  0  0
    4.2921    0.3619   -4.7434 C   0  0  0  0  0  0  0  0  0  0  0  0
    2.5998    1.2007   -1.5441 C   0  0  0  0  0  0  0  0  0  0  0  0
    1.9118    2.3171   -1.9093 O   0  0  0  0  0  0  0  0  0  0  0  0
    1.6542    2.8164   -3.1699 C   0  0  0  0  0  0  0  0  0  0  0  0
   -0.4781    2.2164    0.6695 C   0  0  0  0  0  0  0  0  0  0  0  0
   -2.6392    1.3441    1.8507 H   0  0  0  0  0  0  0  0  0  0  0  0
   -3.2408    3.9145    1.0749 H   0  0  0  0  0  0  0  0  0  0  0  0
   -3.4221    3.1743   -0.4992 H   0  0  0  0  0  0  0  0  0  0  0  0
   -1.6022    5.3184   -0.1644 H   0  0  0  0  0  0  0  0  0  0  0  0
    0.8280    5.7429   -0.2386 H   0  0  0  0  0  0  0  0  0  0  0  0
    2.4352    3.9094    0.2115 H   0  0  0  0  0  0  0  0  0  0  0  0
    5.7730   -2.3060   -0.8188 H   0  0  0  0  0  0  0  0  0  0  0  0
    4.2439   -3.2552   -0.7168 H   0  0  0  0  0  0  0  0  0  0  0  0
    5.5635   -1.4734    1.4904 H   0  0  0  0  0  0  0  0  0  0  0  0
    5.5543   -3.2800    1.4088 H   0  0  0  0  0  0  0  0  0  0  0  0
    3.2156   -3.2149    1.4307 H   0  0  0  0  0  0  0  0  0  0  0  0
    4.3945   -1.8551    3.7723 H   0  0  0  0  0  0  0  0  0  0  0  0
    4.3284   -3.6315    3.4248 H   0  0  0  0  0  0  0  0  0  0  0  0
    2.8296   -2.7510    3.7644 H   0  0  0  0  0  0  0  0  0  0  0  0
    3.1297   -0.3906    2.3174 H   0  0  0  0  0  0  0  0  0  0  0  0
    0.7853   -0.5387    1.7978 H   0  0  0  0  0  0  0  0  0  0  0  0
    1.1067   -1.9922    2.6897 H   0  0  0  0  0  0  0  0  0  0  0  0
    1.6379   -4.2600    0.9012 H   0  0  0  0  0  0  0  0  0  0  0  0
    0.6002   -5.3730   -0.9494 H   0  0  0  0  0  0  0  0  0  0  0  0
   -1.0020   -5.2716   -2.7529 H   0  0  0  0  0  0  0  0  0  0  0  0
   -3.8710   -3.4621   -2.2594 H   0  0  0  0  0  0  0  0  0  0  0  0
   -6.2206   -1.8067   -0.1663 H   0  0  0  0  0  0  0  0  0  0  0  0
   -6.7802   -0.3938    1.6690 H   0  0  0  0  0  0  0  0  0  0  0  0
   -6.6523    1.2312    0.9015 H   0  0  0  0  0  0  0  0  0  0  0  0
   -4.7365    0.1719    3.0781 H   0  0  0  0  0  0  0  0  0  0  0  0
   -6.1313    1.2906    3.3311 H   0  0  0  0  0  0  0  0  0  0  0  0
   -5.1672    2.8303    1.7573 H   0  0  0  0  0  0  0  0  0  0  0  0
   -3.2928    1.9861    3.9506 H   0  0  0  0  0  0  0  0  0  0  0  0
   -4.7404    3.0457    4.1210 H   0  0  0  0  0  0  0  0  0  0  0  0
   -3.3226    3.6105    3.1989 H   0  0  0  0  0  0  0  0  0  0  0  0
   -1.9242    0.5650   -0.7379 H   0  0  0  0  0  0  0  0  0  0  0  0
   -0.5611   -0.7112    0.0593 H   0  0  0  0  0  0  0  0  0  0  0  0
    4.7577   -1.1753   -2.7242 H   0  0  0  0  0  0  0  0  0  0  0  0
    4.2168    0.9814   -5.6603 H   0  0  0  0  0  0  0  0  0  0  0  0
    3.8854   -0.6478   -4.9644 H   0  0  0  0  0  0  0  0  0  0  0  0
    5.3629    0.2944   -4.4557 H   0  0  0  0  0  0  0  0  0  0  0  0
    1.0428    3.7367   -3.0649 H   0  0  0  0  0  0  0  0  0  0  0  0
    1.0656    2.0753   -3.7509 H   0  0  0  0  0  0  0  0  0  0  0  0
    2.5844    3.1061   -3.6978 H   0  0  0  0  0  0  0  0  0  0  0  0
   -0.7872    1.2337    0.9450 H   0  0  0  0  0  0  0  0  0  0  0  0
  1 45  1  1  0  0  0
  2  1  1  0  0  0  0
  2 46  1  0  0  0  0
  2 47  1  0  0  0  0
  3  2  1  0  0  0  0
  4  3  2  0  0  0  0
  4 48  1  0  0  0  0
  5  4  1  0  0  0  0
  5 49  1  0  0  0  0
  6  5  2  0  0  0  0
  6 50  1  0  0  0  0
  7  6  1  0  0  0  0
  8  7  1  0  0  0  0
  9  8  1  0  0  0  0
 10  9  2  0  0  0  0
 11 10  1  0  0  0  0
 12 11  1  0  0  0  0
 12 51  1  0  0  0  0
 12 52  1  0  0  0  0
 13 12  1  0  0  0  0
 13 53  1  0  0  0  0
 13 54  1  0  0  0  0
 14 13  1  0  0  0  0
 14 55  1  6  0  0  0
 15 14  1  0  0  0  0
 15 56  1  0  0  0  0
 15 57  1  0  0  0  0
 15 58  1  0  0  0  0
 16 14  1  0  0  0  0
 16 10  1  0  0  0  0
 16 59  1  1  0  0  0
 17 16  1  0  0  0  0
 17 60  1  0  0  0  0
 17 61  1  0  0  0  0
 18 17  1  0  0  0  0
 19 18  2  0  0  0  0
 19 62  1  0  0  0  0
 20 19  1  0  0  0  0
 20 63  1  0  0  0  0
 21 20  2  0  0  0  0
 22 21  1  0  0  0  0
 22 64  1  0  0  0  0
 23 21  1  0  0  0  0
 24 23  1  0  0  0  0
 25 24  1  0  0  0  0
 26 25  2  0  0  0  0
 27 26  1  0  0  0  0
 27 65  1  0  0  0  0
 28 26  1  0  0  0  0
 28 66  1  0  0  0  0
 29 28  2  0  0  0  0
 30 29  1  0  0  0  0
 30 67  1  0  0  0  0
 30 68  1  0  0  0  0
 31 30  1  0  0  0  0
 31 69  1  0  0  0  0
 31 70  1  0  0  0  0
 32 31  1  0  0  0  0
 32  1  1  0  0  0  0
 32 71  1  6  0  0  0
 33 32  1  0  0  0  0
 33 72  1  0  0  0  0
 33 73  1  0  0  0  0
 33 74  1  0  0  0  0
 34 29  1  0  0  0  0
 34  1  1  0  0  0  0
 35 34  2  0  0  0  0
 35 25  1  0  0  0  0
 35 75  1  0  0  0  0
 36 23  2  0  0  0  0
 36 18  1  0  0  0  0
 36 76  1  0  0  0  0
 37 11  2  0  0  0  0
 37 77  1  0  0  0  0
 38 37  1  0  0  0  0
 39 38  1  0  0  0  0
 40 39  1  0  0  0  0
 40 78  1  0  0  0  0
 40 79  1  0  0  0  0
 40 80  1  0  0  0  0
 41 38  2  0  0  0  0
 41  9  1  0  0  0  0
 42 41  1  0  0  0  0
 43 42  1  0  0  0  0
 43 81  1  0  0  0  0
 43 82  1  0  0  0  0
 43 83  1  0  0  0  0
 44  7  2  0  0  0  0
 44  3  1  0  0  0  0
 44 84  1  0  0  0  0
M  CHG  2  14   1  32   1
M  END
>  <MOL Chiral Flag>
0

>  <energy>
239.01397057635859

$$$$
