>86.sdf
 OpenBabel10052218253D

 28 29  0  0  0  0  0  0  0  0999 V2000
   -2.3532    1.2035    1.4341 C   0  0  0  0  0  0  0  0  0  0  0  0
   -1.8804    0.8958    0.0033 C   0  0  0  0  0  0  0  0  0  0  0  0
   -2.8547   -0.1069   -0.6457 C   0  0  0  0  0  0  0  0  0  0  0  0
   -0.3927    0.4220   -0.0363 C   0  0  2  0  0  0  0  0  0  0  0  0
   -0.1383   -0.9363    0.6854 C   0  0  0  0  0  0  0  0  0  0  0  0
    1.3717   -1.2756    0.5858 C   0  0  0  0  0  0  0  0  0  0  0  0
    2.0745   -0.1254   -0.1712 C   0  0  2  0  0  0  0  0  0  0  0  0
    3.5820   -0.3614   -0.2829 C   0  0  0  0  0  0  0  0  0  0  0  0
    1.7901    1.0788    0.5474 O   0  0  0  0  0  0  0  0  0  0  0  0
    0.4595    1.3898    0.5945 O   0  0  0  0  0  0  0  0  0  0  0  0
    1.4213    0.0098   -1.5272 C   0  0  0  0  0  0  0  0  0  0  0  0
    0.1229    0.2947   -1.4587 C   0  0  0  0  0  0  0  0  0  0  0  0
   -2.3602    0.2910    2.0652 H   0  0  0  0  0  0  0  0  0  0  0  0
   -3.3866    1.6114    1.4131 H   0  0  0  0  0  0  0  0  0  0  0  0
   -1.6986    1.9651    1.9068 H   0  0  0  0  0  0  0  0  0  0  0  0
   -1.9391    1.8476   -0.5707 H   0  0  0  0  0  0  0  0  0  0  0  0
   -2.5736   -0.3240   -1.6958 H   0  0  0  0  0  0  0  0  0  0  0  0
   -2.8870   -1.0613   -0.0800 H   0  0  0  0  0  0  0  0  0  0  0  0
   -3.8823    0.3152   -0.6548 H   0  0  0  0  0  0  0  0  0  0  0  0
   -0.4202   -0.8622    1.7563 H   0  0  0  0  0  0  0  0  0  0  0  0
   -0.7271   -1.7578    0.2254 H   0  0  0  0  0  0  0  0  0  0  0  0
    1.8013   -1.3805    1.6065 H   0  0  0  0  0  0  0  0  0  0  0  0
    1.5150   -2.2382    0.0463 H   0  0  0  0  0  0  0  0  0  0  0  0
    4.0672    0.4838   -0.8156 H   0  0  0  0  0  0  0  0  0  0  0  0
    3.7856   -1.3004   -0.8420 H   0  0  0  0  0  0  0  0  0  0  0  0
    4.0320   -0.4468    0.7291 H   0  0  0  0  0  0  0  0  0  0  0  0
    1.9504   -0.0852   -2.4708 H   0  0  0  0  0  0  0  0  0  0  0  0
   -0.4794    0.4537   -2.3472 H   0  0  0  0  0  0  0  0  0  0  0  0
  1 13  1  0  0  0  0
  1 14  1  0  0  0  0
  1 15  1  0  0  0  0
  2  1  1  0  0  0  0
  2 16  1  0  0  0  0
  3  2  1  0  0  0  0
  3 17  1  0  0  0  0
  3 18  1  0  0  0  0
  3 19  1  0  0  0  0
  4  2  1  1  0  0  0
  5  4  1  0  0  0  0
  5 20  1  0  0  0  0
  5 21  1  0  0  0  0
  6  5  1  0  0  0  0
  6 22  1  0  0  0  0
  6 23  1  0  0  0  0
  7  6  1  0  0  0  0
  7  8  1  6  0  0  0
  8 24  1  0  0  0  0
  8 25  1  0  0  0  0
  8 26  1  0  0  0  0
  9  7  1  0  0  0  0
 10  9  1  0  0  0  0
 10  4  1  0  0  0  0
 11  7  1  0  0  0  0
 11 27  1  0  0  0  0
 12 11  2  0  0  0  0
 12  4  1  0  0  0  0
 12 28  1  0  0  0  0
M  END
>  <MOL Chiral Flag>
0

>  <energy>
73.448011825367189

$$$$
