>89.sdf
 OpenBabel10062217323D

 35 37  0  0  0  0  0  0  0  0999 V2000
   -0.3513   -1.0218   -1.2603 H   0  0  0  0  0  0  0  0  0  0  0  0
   -1.2018   -0.6988   -0.6330 C   0  0  1  0  0  0  0  0  0  0  0  0
   -2.2344   -0.1103   -1.6416 C   0  0  0  0  0  0  0  0  0  0  0  0
   -2.0922    1.3476   -1.4120 C   0  0  0  0  0  0  0  0  0  0  0  0
   -2.7022    2.2014   -2.0331 O   0  0  0  0  0  0  0  0  0  0  0  0
   -1.2434    1.6181   -0.2813 C   0  0  0  0  0  0  0  0  0  0  0  0
   -0.9161    3.3748    0.4199 Br  0  0  0  0  0  0  0  0  0  0  0  0
   -0.7482    0.4847    0.1996 C   0  0  0  0  0  0  0  0  0  0  0  0
    0.1540    0.4921    1.4191 C   0  0  1  0  0  0  0  0  0  0  0  0
    0.8352   -0.7336    2.0861 C   0  0  1  0  0  0  0  0  0  0  0  0
    0.1129   -2.1005    2.0317 C   0  0  0  0  0  0  0  0  0  0  0  0
   -0.5650   -2.6969    0.7863 C   0  0  0  0  0  0  0  0  0  0  0  0
   -1.7292   -1.9114    0.1505 C   0  0  1  0  0  0  0  0  0  0  0  0
   -2.8273   -1.5572    1.1733 C   0  0  0  0  0  0  0  0  0  0  0  0
    1.6298    0.1380    1.1353 C   0  0  0  0  0  0  0  0  0  0  0  0
    2.5517    1.2145    1.7239 C   0  0  0  0  0  0  0  0  0  0  0  0
    2.0963   -0.4661   -0.1921 C   0  0  0  0  0  0  0  0  0  0  0  0
   -3.2869   -0.3701   -1.4078 H   0  0  0  0  0  0  0  0  0  0  0  0
   -1.9961   -0.4154   -2.6841 H   0  0  0  0  0  0  0  0  0  0  0  0
   -0.2508    1.0415    2.2974 H   0  0  0  0  0  0  0  0  0  0  0  0
    1.1904   -0.5206    3.1193 H   0  0  0  0  0  0  0  0  0  0  0  0
   -0.6477   -2.0749    2.8403 H   0  0  0  0  0  0  0  0  0  0  0  0
    0.8714   -2.8474    2.3513 H   0  0  0  0  0  0  0  0  0  0  0  0
    0.1837   -2.9512    0.0109 H   0  0  0  0  0  0  0  0  0  0  0  0
   -0.9810   -3.6755    1.1157 H   0  0  0  0  0  0  0  0  0  0  0  0
   -2.1681   -2.6020   -0.6046 H   0  0  0  0  0  0  0  0  0  0  0  0
   -3.6947   -1.0717    0.6845 H   0  0  0  0  0  0  0  0  0  0  0  0
   -2.4442   -0.8612    1.9487 H   0  0  0  0  0  0  0  0  0  0  0  0
   -3.1913   -2.4780    1.6755 H   0  0  0  0  0  0  0  0  0  0  0  0
    2.5749    2.0947    1.0483 H   0  0  0  0  0  0  0  0  0  0  0  0
    3.5809    0.8105    1.8257 H   0  0  0  0  0  0  0  0  0  0  0  0
    2.2175    1.5531    2.7292 H   0  0  0  0  0  0  0  0  0  0  0  0
    2.0039    0.2919   -0.9983 H   0  0  0  0  0  0  0  0  0  0  0  0
    1.5688   -1.3827   -0.4715 H   0  0  0  0  0  0  0  0  0  0  0  0
    3.1631   -0.7572   -0.1039 H   0  0  0  0  0  0  0  0  0  0  0  0
  2  1  1  6  0  0  0
  3  2  1  0  0  0  0
  3 18  1  0  0  0  0
  3 19  1  0  0  0  0
  4  3  1  0  0  0  0
  5  4  2  0  0  0  0
  6  4  1  0  0  0  0
  7  6  1  0  0  0  0
  8  6  2  0  0  0  0
  8  2  1  0  0  0  0
  9  8  1  0  0  0  0
  9 20  1  1  0  0  0
 10  9  1  0  0  0  0
 10 21  1  1  0  0  0
 11 10  1  0  0  0  0
 11 22  1  0  0  0  0
 11 23  1  0  0  0  0
 12 11  1  0  0  0  0
 12 24  1  0  0  0  0
 12 25  1  0  0  0  0
 13 12  1  0  0  0  0
 13  2  1  0  0  0  0
 13 26  1  6  0  0  0
 14 13  1  0  0  0  0
 14 27  1  0  0  0  0
 14 28  1  0  0  0  0
 14 29  1  0  0  0  0
 15 10  1  0  0  0  0
 15  9  1  0  0  0  0
 16 15  1  0  0  0  0
 16 30  1  0  0  0  0
 16 31  1  0  0  0  0
 16 32  1  0  0  0  0
 17 15  1  0  0  0  0
 17 33  1  0  0  0  0
 17 34  1  0  0  0  0
 17 35  1  0  0  0  0
M  END
>  <MOL Chiral Flag>
0

>  <energy>
63.48877007525013

$$$$
