>9.sdf
 OpenBabel10042211423D

 25 25  0  0  0  0  0  0  0  0999 V2000
    4.4898   -0.8183   -0.9728 C   0  0  0  0  0  0  0  0  0  0  0  0
    4.0576    0.3936   -0.3597 O   0  0  0  0  0  0  0  0  0  0  0  0
    2.7117    0.4565   -0.1302 C   0  0  0  0  0  0  0  0  0  0  0  0
    1.7433   -0.0546   -0.9914 C   0  0  0  0  0  0  0  0  0  0  0  0
    0.3923    0.0494   -0.6607 C   0  0  0  0  0  0  0  0  0  0  0  0
    0.0085    0.6854    0.5242 C   0  0  0  0  0  0  0  0  0  0  0  0
   -1.4241    0.8074    0.8700 C   0  0  0  0  0  0  0  0  0  0  0  0
   -2.3221    0.1441    0.2086 N   0  0  0  0  0  0  0  0  0  0  0  0
   -3.6137    0.3578    0.5892 N   0  0  0  0  0  0  0  0  0  0  0  0
   -4.6128   -0.4597    0.1324 C   0  0  0  0  0  0  0  0  0  0  0  0
   -4.2223   -1.4650   -0.6857 N   0  0  0  0  0  0  0  0  0  0  0  0
   -6.2020   -0.2382    0.5549 S   0  0  0  0  0  0  0  0  0  0  0  0
    0.9749    1.2318    1.3700 C   0  0  0  0  0  0  0  0  0  0  0  0
    2.3256    1.1202    1.0357 C   0  0  0  0  0  0  0  0  0  0  0  0
    4.0374   -1.6932   -0.4917 H   0  0  0  0  0  0  0  0  0  0  0  0
    5.5731   -0.8907   -0.8387 H   0  0  0  0  0  0  0  0  0  0  0  0
    4.2782   -0.8133   -2.0476 H   0  0  0  0  0  0  0  0  0  0  0  0
    2.0152   -0.5223   -1.9324 H   0  0  0  0  0  0  0  0  0  0  0  0
   -0.3577   -0.3450   -1.3458 H   0  0  0  0  0  0  0  0  0  0  0  0
   -1.6941    1.4587    1.7223 H   0  0  0  0  0  0  0  0  0  0  0  0
   -3.8533    1.1258    1.2101 H   0  0  0  0  0  0  0  0  0  0  0  0
   -3.2247   -1.6182   -0.7700 H   0  0  0  0  0  0  0  0  0  0  0  0
   -4.8705   -2.1858   -0.9623 H   0  0  0  0  0  0  0  0  0  0  0  0
    0.6960    1.7360    2.2890 H   0  0  0  0  0  0  0  0  0  0  0  0
    3.0936    1.5374    1.6827 H   0  0  0  0  0  0  0  0  0  0  0  0
  1 15  1  0  0  0  0
  1 16  1  0  0  0  0
  1 17  1  0  0  0  0
  2  1  1  0  0  0  0
  3  2  1  0  0  0  0
  4  3  2  0  0  0  0
  4 18  1  0  0  0  0
  5  4  1  0  0  0  0
  5 19  1  0  0  0  0
  6  5  2  0  0  0  0
  7  6  1  0  0  0  0
  7 20  1  0  0  0  0
  8  7  2  0  0  0  0
  9  8  1  0  0  0  0
  9 21  1  0  0  0  0
 10  9  1  0  0  0  0
 11 10  1  0  0  0  0
 11 22  1  0  0  0  0
 11 23  1  0  0  0  0
 12 10  2  0  0  0  0
 13  6  1  0  0  0  0
 13 24  1  0  0  0  0
 14 13  2  0  0  0  0
 14  3  1  0  0  0  0
 14 25  1  0  0  0  0
M  END
>  <energy>
5.6854842203789033

$$$$
