>92.sdf
 OpenBabel10052218273D

 27 30  0  0  0  0  0  0  0  0999 V2000
    1.1194    0.0056    0.0637 O   0  0  0  0  0  0  0  0  0  0  0  0
    2.3392   -0.0370    0.0642 C   0  0  0  0  0  0  0  0  0  0  0  0
    3.2656    1.0912    0.0644 C   0  0  0  0  0  0  0  0  0  0  0  0
    2.9669    2.4141    0.0640 N   0  0  0  0  0  0  0  0  0  0  0  0
    3.9811    3.3291    0.0639 C   0  0  0  0  0  0  0  0  0  0  0  0
    5.3371    2.8973    0.0645 C   0  0  0  0  0  0  0  0  0  0  0  0
    6.3697    3.8509    0.0643 C   0  0  0  0  0  0  0  0  0  0  0  0
    6.0628    5.2134    0.0635 C   0  0  0  0  0  0  0  0  0  0  0  0
    4.7300    5.6364    0.0629 C   0  0  0  0  0  0  0  0  0  0  0  0
    3.6909    4.6989    0.0632 C   0  0  0  0  0  0  0  0  0  0  0  0
    5.6034    1.5155    0.0649 C   0  0  0  0  0  0  0  0  0  0  0  0
    6.7484    1.0964    0.0653 O   0  0  0  0  0  0  0  0  0  0  0  0
    4.5416    0.6486    0.0647 N   0  0  0  0  0  0  0  0  0  0  0  0
    4.4966   -0.7846    0.0644 C   0  0  0  0  0  0  0  0  0  0  0  0
    5.5633   -1.6862    0.0641 C   0  0  0  0  0  0  0  0  0  0  0  0
    5.2724   -3.0611    0.0636 C   0  0  0  0  0  0  0  0  0  0  0  0
    3.9329   -3.5094    0.0634 C   0  0  0  0  0  0  0  0  0  0  0  0
    2.8723   -2.5845    0.0637 C   0  0  0  0  0  0  0  0  0  0  0  0
    3.1854   -1.2272    0.0642 C   0  0  0  0  0  0  0  0  0  0  0  0
    7.4081    3.5426    0.0647 H   0  0  0  0  0  0  0  0  0  0  0  0
    6.8618    5.9436    0.0632 H   0  0  0  0  0  0  0  0  0  0  0  0
    4.5028    6.6945    0.0622 H   0  0  0  0  0  0  0  0  0  0  0  0
    2.6628    5.0392    0.0627 H   0  0  0  0  0  0  0  0  0  0  0  0
    6.5895   -1.3501    0.0642 H   0  0  0  0  0  0  0  0  0  0  0  0
    6.0819   -3.7794    0.0633 H   0  0  0  0  0  0  0  0  0  0  0  0
    3.7230   -4.5709    0.0630 H   0  0  0  0  0  0  0  0  0  0  0  0
    1.8437   -2.9202    0.0635 H   0  0  0  0  0  0  0  0  0  0  0  0
  2  1  2  0  0  0  0
  3  2  1  0  0  0  0
  4  3  2  0  0  0  0
  5  4  1  0  0  0  0
  6  5  2  0  0  0  0
  7  6  1  0  0  0  0
  7 20  1  0  0  0  0
  8  7  2  0  0  0  0
  8 21  1  0  0  0  0
  9  8  1  0  0  0  0
  9 22  1  0  0  0  0
 10  9  2  0  0  0  0
 10  5  1  0  0  0  0
 10 23  1  0  0  0  0
 11  6  1  0  0  0  0
 12 11  2  0  0  0  0
 13 11  1  0  0  0  0
 13  3  1  0  0  0  0
 14 13  1  0  0  0  0
 15 14  2  0  0  0  0
 15 24  1  0  0  0  0
 16 15  1  0  0  0  0
 16 25  1  0  0  0  0
 17 16  2  0  0  0  0
 17 26  1  0  0  0  0
 18 17  1  0  0  0  0
 18 27  1  0  0  0  0
 19 18  2  0  0  0  0
 19  2  1  0  0  0  0
 19 14  1  0  0  0  0
M  END
>  <MOL Chiral Flag>
0

>  <energy>
69.627925078690424

$$$$
