>93.sdf
 OpenBabel10052218273D

 40 44  0  0  0  0  0  0  0  0999 V2000
    3.4682    1.5400    2.7884 C   0  0  0  0  0  0  0  0  0  0  0  0
    2.1666    2.2494    2.4141 C   0  0  0  0  0  0  0  0  0  0  0  0
    1.4511    1.5158    1.3543 N   0  0  0  0  0  0  0  0  0  0  0  0
    0.2615    0.8694    1.4489 C   0  0  0  0  0  0  0  0  0  0  0  0
   -0.5587    0.8255    2.5720 C   0  0  0  0  0  0  0  0  0  0  0  0
   -1.7908    0.1985    2.4743 C   0  0  0  0  0  0  0  0  0  0  0  0
   -2.1736   -0.4802    1.3030 C   0  0  0  0  0  0  0  0  0  0  0  0
   -3.3991   -1.0735    1.2741 N   0  0  0  0  0  0  0  0  0  0  0  0
   -3.8396   -1.7874    0.1984 C   0  0  0  0  0  0  0  0  0  0  0  0
   -4.9566   -2.2801    0.2250 O   0  0  0  0  0  0  0  0  0  0  0  0
   -2.9875   -2.0123   -0.8889 C   0  0  0  0  0  0  0  0  0  0  0  0
   -3.4020   -2.8451   -1.9506 C   0  0  0  0  0  0  0  0  0  0  0  0
   -2.5236   -3.1660   -2.9788 C   0  0  0  0  0  0  0  0  0  0  0  0
   -1.2184   -2.6959   -2.9420 C   0  0  0  0  0  0  0  0  0  0  0  0
   -0.8013   -1.8558   -1.9086 C   0  0  0  0  0  0  0  0  0  0  0  0
   -1.6839   -1.4360   -0.8941 C   0  0  0  0  0  0  0  0  0  0  0  0
   -1.2922   -0.5538    0.1727 C   0  0  0  0  0  0  0  0  0  0  0  0
   -0.0898    0.2561    0.2392 C   0  0  0  0  0  0  0  0  0  0  0  0
    0.9054    0.6962   -0.6759 C   0  0  0  0  0  0  0  0  0  0  0  0
    1.8315    1.4190    0.0638 C   0  0  0  0  0  0  0  0  0  0  0  0
    2.9564    2.0147   -0.5217 C   0  0  0  0  0  0  0  0  0  0  0  0
    3.1373    1.8929   -1.9018 C   0  0  0  0  0  0  0  0  0  0  0  0
    2.1841    1.2201   -2.6790 C   0  0  0  0  0  0  0  0  0  0  0  0
    1.0573    0.6348   -2.0801 C   0  0  0  0  0  0  0  0  0  0  0  0
    3.2428    0.5184    3.1612 H   0  0  0  0  0  0  0  0  0  0  0  0
    4.1600    1.4537    1.9291 H   0  0  0  0  0  0  0  0  0  0  0  0
    3.9817    2.1065    3.5935 H   0  0  0  0  0  0  0  0  0  0  0  0
    1.5696    2.3142    3.3415 H   0  0  0  0  0  0  0  0  0  0  0  0
    2.3630    3.2908    2.0811 H   0  0  0  0  0  0  0  0  0  0  0  0
   -0.2978    1.3150    3.4966 H   0  0  0  0  0  0  0  0  0  0  0  0
   -2.4538    0.2184    3.3310 H   0  0  0  0  0  0  0  0  0  0  0  0
   -4.0365   -0.9793    2.0993 H   0  0  0  0  0  0  0  0  0  0  0  0
   -4.3972   -3.2728   -1.9680 H   0  0  0  0  0  0  0  0  0  0  0  0
   -2.8416   -3.8209   -3.7798 H   0  0  0  0  0  0  0  0  0  0  0  0
   -0.5159   -2.9990   -3.7079 H   0  0  0  0  0  0  0  0  0  0  0  0
    0.2338   -1.6113   -1.8763 H   0  0  0  0  0  0  0  0  0  0  0  0
    3.6651    2.5859    0.0597 H   0  0  0  0  0  0  0  0  0  0  0  0
    3.9939    2.3533   -2.3770 H   0  0  0  0  0  0  0  0  0  0  0  0
    2.3066    1.1729   -3.7535 H   0  0  0  0  0  0  0  0  0  0  0  0
    0.3238    0.2072   -2.7374 H   0  0  0  0  0  0  0  0  0  0  0  0
  1 25  1  0  0  0  0
  1 26  1  0  0  0  0
  1 27  1  0  0  0  0
  2  1  1  0  0  0  0
  2 28  1  0  0  0  0
  2 29  1  0  0  0  0
  3  2  1  0  0  0  0
  4  3  1  0  0  0  0
  5  4  2  0  0  0  0
  5 30  1  0  0  0  0
  6  5  1  0  0  0  0
  6 31  1  0  0  0  0
  7  6  2  0  0  0  0
  8  7  1  0  0  0  0
  8 32  1  0  0  0  0
  9  8  1  0  0  0  0
 10  9  2  0  0  0  0
 11  9  1  0  0  0  0
 12 11  2  0  0  0  0
 12 33  1  0  0  0  0
 13 12  1  0  0  0  0
 13 34  1  0  0  0  0
 14 13  2  0  0  0  0
 14 35  1  0  0  0  0
 15 14  1  0  0  0  0
 15 36  1  0  0  0  0
 16 15  2  0  0  0  0
 16 11  1  0  0  0  0
 17 16  1  0  0  0  0
 17  7  1  0  0  0  0
 18 17  2  0  0  0  0
 18  4  1  0  0  0  0
 19 18  1  0  0  0  0
 20 19  2  0  0  0  0
 20  3  1  0  0  0  0
 21 20  1  0  0  0  0
 21 37  1  0  0  0  0
 22 21  2  0  0  0  0
 22 38  1  0  0  0  0
 23 22  1  0  0  0  0
 23 39  1  0  0  0  0
 24 23  2  0  0  0  0
 24 19  1  0  0  0  0
 24 40  1  0  0  0  0
M  END
>  <MOL Chiral Flag>
0

>  <energy>
63.01305307099458

$$$$
