>95.sdf
 OpenBabel10052218283D

 34 36  0  0  0  0  0  0  0  0999 V2000
    5.0901   -2.1088    1.1601 C   0  0  0  0  0  0  0  0  0  0  0  0
    3.8787   -1.3052    0.7776 C   0  0  0  0  0  0  0  0  0  0  0  0
    2.7826   -1.2435    1.6602 C   0  0  0  0  0  0  0  0  0  0  0  0
    1.6418   -0.5649    1.2604 C   0  0  0  0  0  0  0  0  0  0  0  0
    1.5581    0.0551    0.0350 C   0  0  0  0  0  0  0  0  0  0  0  0
    0.1932    0.5351   -0.0710 C   0  0  0  0  0  0  0  0  0  0  0  0
   -0.3281    0.9789   -1.0762 O   0  0  0  0  0  0  0  0  0  0  0  0
   -0.4580    0.0860    1.1763 C   0  0  0  0  0  0  0  0  0  0  0  0
    0.4872   -0.4890    1.9606 O   0  0  0  0  0  0  0  0  0  0  0  0
   -1.7599    0.0364    1.5380 C   0  0  0  0  0  0  0  0  0  0  0  0
   -2.9476    0.4218    0.7271 C   0  0  0  0  0  0  0  0  0  0  0  0
   -4.1072   -0.3538    0.8991 C   0  0  0  0  0  0  0  0  0  0  0  0
   -5.2416   -0.1246    0.1217 C   0  0  0  0  0  0  0  0  0  0  0  0
   -5.2431    0.8954   -0.8280 C   0  0  0  0  0  0  0  0  0  0  0  0
   -4.1112    1.7067   -0.9876 C   0  0  0  0  0  0  0  0  0  0  0  0
   -4.1082    2.7045   -1.8947 O   0  0  0  0  0  0  0  0  0  0  0  0
   -2.9696    1.4760   -0.2071 C   0  0  0  0  0  0  0  0  0  0  0  0
    2.6443    0.0650   -0.8591 C   0  0  0  0  0  0  0  0  0  0  0  0
    2.5775    0.7660   -2.1921 C   0  0  0  0  0  0  0  0  0  0  0  0
    3.8186   -0.6356   -0.4773 C   0  0  0  0  0  0  0  0  0  0  0  0
    5.1992   -0.7089   -1.5799 Cl  0  0  0  0  0  0  0  0  0  0  0  0
    5.9908   -1.4629    1.1803 H   0  0  0  0  0  0  0  0  0  0  0  0
    5.2360   -2.9218    0.4158 H   0  0  0  0  0  0  0  0  0  0  0  0
    4.9701   -2.5835    2.1573 H   0  0  0  0  0  0  0  0  0  0  0  0
    2.8029   -1.7496    2.6172 H   0  0  0  0  0  0  0  0  0  0  0  0
   -1.9662   -0.4774    2.4740 H   0  0  0  0  0  0  0  0  0  0  0  0
   -4.1176   -1.1675    1.6151 H   0  0  0  0  0  0  0  0  0  0  0  0
   -6.1156   -0.7503    0.2475 H   0  0  0  0  0  0  0  0  0  0  0  0
   -6.1245    1.0582   -1.4349 H   0  0  0  0  0  0  0  0  0  0  0  0
   -4.8717    2.8740   -2.4653 H   0  0  0  0  0  0  0  0  0  0  0  0
   -2.1252    2.1316   -0.3287 H   0  0  0  0  0  0  0  0  0  0  0  0
    3.3876    1.5239   -2.2478 H   0  0  0  0  0  0  0  0  0  0  0  0
    2.7095    0.0306   -3.0122 H   0  0  0  0  0  0  0  0  0  0  0  0
    1.6273    1.3021   -2.3616 H   0  0  0  0  0  0  0  0  0  0  0  0
  1 22  1  0  0  0  0
  1 23  1  0  0  0  0
  1 24  1  0  0  0  0
  2  1  1  0  0  0  0
  3  2  2  0  0  0  0
  3 25  1  0  0  0  0
  4  3  1  0  0  0  0
  5  4  2  0  0  0  0
  6  5  1  0  0  0  0
  7  6  2  0  0  0  0
  8  6  1  0  0  0  0
  9  8  1  0  0  0  0
  9  4  1  0  0  0  0
 10  8  2  0  0  0  0
 10 26  1  0  0  0  0
 11 10  1  0  0  0  0
 12 11  2  0  0  0  0
 12 27  1  0  0  0  0
 13 12  1  0  0  0  0
 13 28  1  0  0  0  0
 14 13  2  0  0  0  0
 14 29  1  0  0  0  0
 15 14  1  0  0  0  0
 16 15  1  0  0  0  0
 16 30  1  0  0  0  0
 17 15  2  0  0  0  0
 17 11  1  0  0  0  0
 17 31  1  0  0  0  0
 18  5  1  0  0  0  0
 19 18  1  0  0  0  0
 19 32  1  0  0  0  0
 19 33  1  0  0  0  0
 19 34  1  0  0  0  0
 20 18  2  0  0  0  0
 20  2  1  0  0  0  0
 21 20  1  0  0  0  0
M  END
>  <MOL Chiral Flag>
0

>  <energy>
76.277141778660194

$$$$
