>98.sdf
 OpenBabel10062217353D

 51 51  0  0  0  0  0  0  0  0999 V2000
   -5.5938   -9.0376    3.0580 C   0  0  0  0  0  0  0  0  0  0  0  0
   -4.3009   -8.2300    3.0148 C   0  0  0  0  0  0  0  0  0  0  0  0
   -4.5790   -6.7358    2.7908 C   0  0  0  0  0  0  0  0  0  0  0  0
   -3.2743   -5.9320    2.8544 C   0  0  0  0  0  0  0  0  0  0  0  0
   -3.5207   -4.4114    2.8647 C   0  0  0  0  0  0  0  0  0  0  0  0
   -2.2075   -3.6775    3.1880 C   0  0  0  0  0  0  0  0  0  0  0  0
   -2.3754   -2.1689    3.4525 C   0  0  0  0  0  0  0  0  0  0  0  0
   -1.0135   -1.5764    3.9206 C   0  0  0  0  0  0  0  0  0  0  0  0
   -0.8996   -0.0280    3.9021 C   0  0  0  0  0  0  0  0  0  0  0  0
   -1.0661    0.5490    2.4703 C   0  0  0  0  0  0  0  0  0  0  0  0
    0.0932    1.2316    1.8683 N   0  0  0  0  0  0  0  0  0  0  0  0
    0.6885    2.4172    2.1728 C   0  0  0  0  0  0  0  0  0  0  0  0
    1.6453    2.6504    1.1777 C   0  0  0  0  0  0  0  0  0  0  0  0
    2.5842    3.8245    0.9832 C   0  0  0  0  0  0  0  0  0  0  0  0
    2.4015    4.3739   -0.2803 O   0  0  0  0  0  0  0  0  0  0  0  0
    3.2373    5.2936   -0.8431 C   0  0  0  0  0  0  0  0  0  0  0  0
    2.9874    5.7729   -2.2464 C   0  0  0  0  0  0  0  0  0  0  0  0
    4.2125    5.7069   -0.2314 O   0  0  0  0  0  0  0  0  0  0  0  0
    1.5885    1.5966    0.3385 N   0  3  0  0  0  0  0  0  0  0  0  0
    2.3595    1.3809   -0.8792 C   0  0  0  0  0  0  0  0  0  0  0  0
    0.6601    0.7644    0.7643 N   0  0  0  0  0  0  0  0  0  0  0  0
   -5.3580  -10.1064    3.2475 H   0  0  0  0  0  0  0  0  0  0  0  0
   -6.2471   -8.6721    3.8799 H   0  0  0  0  0  0  0  0  0  0  0  0
   -6.1354   -8.9530    2.0933 H   0  0  0  0  0  0  0  0  0  0  0  0
   -3.7818   -8.3656    3.9902 H   0  0  0  0  0  0  0  0  0  0  0  0
   -3.6449   -8.6222    2.2080 H   0  0  0  0  0  0  0  0  0  0  0  0
   -5.2506   -6.3867    3.6055 H   0  0  0  0  0  0  0  0  0  0  0  0
   -5.0856   -6.5735    1.8141 H   0  0  0  0  0  0  0  0  0  0  0  0
   -2.5993   -6.2182    2.0163 H   0  0  0  0  0  0  0  0  0  0  0  0
   -2.7752   -6.1970    3.8118 H   0  0  0  0  0  0  0  0  0  0  0  0
   -3.9513   -4.0717    1.8949 H   0  0  0  0  0  0  0  0  0  0  0  0
   -4.2471   -4.1861    3.6734 H   0  0  0  0  0  0  0  0  0  0  0  0
   -1.4932   -3.8281    2.3461 H   0  0  0  0  0  0  0  0  0  0  0  0
   -1.7749   -4.1304    4.1043 H   0  0  0  0  0  0  0  0  0  0  0  0
   -3.1402   -1.9907    4.2426 H   0  0  0  0  0  0  0  0  0  0  0  0
   -2.7482   -1.7088    2.5166 H   0  0  0  0  0  0  0  0  0  0  0  0
   -0.8242   -1.9545    4.9525 H   0  0  0  0  0  0  0  0  0  0  0  0
   -0.2030   -1.9589    3.2680 H   0  0  0  0  0  0  0  0  0  0  0  0
   -1.6800    0.3996    4.5719 H   0  0  0  0  0  0  0  0  0  0  0  0
    0.0878    0.2612    4.3226 H   0  0  0  0  0  0  0  0  0  0  0  0
   -1.9569    1.2067    2.4303 H   0  0  0  0  0  0  0  0  0  0  0  0
   -1.2938   -0.2961    1.7909 H   0  0  0  0  0  0  0  0  0  0  0  0
    0.4289    3.0619    3.0059 H   0  0  0  0  0  0  0  0  0  0  0  0
    2.4509    4.6035    1.7646 H   0  0  0  0  0  0  0  0  0  0  0  0
    3.6212    3.4276    1.0509 H   0  0  0  0  0  0  0  0  0  0  0  0
    2.9983    4.9129   -2.9494 H   0  0  0  0  0  0  0  0  0  0  0  0
    2.0021    6.2788   -2.3082 H   0  0  0  0  0  0  0  0  0  0  0  0
    3.7729    6.4923   -2.5699 H   0  0  0  0  0  0  0  0  0  0  0  0
    3.4425    1.3530   -0.6445 H   0  0  0  0  0  0  0  0  0  0  0  0
    2.0590    0.4192   -1.3454 H   0  0  0  0  0  0  0  0  0  0  0  0
    2.1500    2.1956   -1.6033 H   0  0  0  0  0  0  0  0  0  0  0  0
  1 22  1  0  0  0  0
  1 23  1  0  0  0  0
  1 24  1  0  0  0  0
  2  1  1  0  0  0  0
  2 25  1  0  0  0  0
  2 26  1  0  0  0  0
  3  2  1  0  0  0  0
  3 27  1  0  0  0  0
  3 28  1  0  0  0  0
  4  3  1  0  0  0  0
  4 29  1  0  0  0  0
  4 30  1  0  0  0  0
  5  4  1  0  0  0  0
  5 31  1  0  0  0  0
  5 32  1  0  0  0  0
  6  5  1  0  0  0  0
  6 33  1  0  0  0  0
  6 34  1  0  0  0  0
  7  6  1  0  0  0  0
  7 35  1  0  0  0  0
  7 36  1  0  0  0  0
  8  7  1  0  0  0  0
  8 37  1  0  0  0  0
  8 38  1  0  0  0  0
  9  8  1  0  0  0  0
  9 39  1  0  0  0  0
  9 40  1  0  0  0  0
 10  9  1  0  0  0  0
 10 41  1  0  0  0  0
 10 42  1  0  0  0  0
 11 10  1  0  0  0  0
 12 11  1  0  0  0  0
 12 43  1  0  0  0  0
 13 12  2  0  0  0  0
 14 13  1  0  0  0  0
 14 44  1  0  0  0  0
 14 45  1  0  0  0  0
 15 14  1  0  0  0  0
 16 15  1  0  0  0  0
 17 16  1  0  0  0  0
 17 46  1  0  0  0  0
 17 47  1  0  0  0  0
 17 48  1  0  0  0  0
 18 16  2  0  0  0  0
 19 13  1  0  0  0  0
 20 19  1  0  0  0  0
 20 49  1  0  0  0  0
 20 50  1  0  0  0  0
 20 51  1  0  0  0  0
 21 19  2  0  0  0  0
 21 11  1  0  0  0  0
M  CHG  1  19   1
M  END
>  <MOL Chiral Flag>
0

>  <energy>
33.715254997396869

$$$$
